geometry optimzed in LAMMPS
_audit_creation_date              2020-11-30 
_audit_creation_method            'lammps2cif' 
_symmetry_space_group_name_H-M    'P1' 
_symmetry_Int_Tables_number       1 
_symmetry_cell_setting            triclinic 
loop_ 
_symmetry_equiv_pos_as_xyz 
  x,y,z 
_cell_length_a                    69.40377893 
_cell_length_b                    69.0817429419844 
_cell_length_c                    69.01858905374814 
_cell_angle_alpha                 89.99690650025944 
_cell_angle_beta                  90.04640742216796 
_cell_angle_gamma                 89.93022070089005 
loop_ 
_atom_site_label 
_atom_site_type_symbol 
_atom_site_fract_x 
_atom_site_fract_y 
_atom_site_fract_z 
_atom_site_charge 
N1          N  0.21581224  0.98573218  0.62270640    -0.27900
N2          N  0.19847211  0.99136747  0.61697066    -0.35800
C3          C  0.18843767  0.97592664  0.61087794     0.00400
C4          C  0.19972344  0.95956427  0.61294899     0.06500
C5          C  0.21699892  0.96630222  0.62063643    -0.06600
H6          H  0.17362821  0.97652450  0.60600477     0.07100
H7          H  0.22947208  0.95771586  0.62448736     0.08300
Cu8        Cu  0.18750320  0.01923833  0.61852699     0.44200
Cu9        Cu  0.23703843  0.00499633  0.63294975     0.42000
Cu10       Cu  0.21950376  0.05495643  0.63444327     0.43900
N11         N  0.17898496  0.04779764  0.62173504    -0.35300
N12         N  0.19118924  0.06127811  0.62739494    -0.29500
C13         C  0.18201066  0.07841295  0.62805009    -0.05600
C14         C  0.16296308  0.07558847  0.62263680     0.06600
C15         C  0.16158599  0.05591539  0.61878175     0.00400
H16         H  0.18867149  0.09184236  0.63250538     0.08000
H17         H  0.14895945  0.04808017  0.61401378     0.07100
N18         N  0.24727776  0.04663892  0.64167051    -0.36700
N19         N  0.25414058  0.02878019  0.64127232    -0.28900
C20         C  0.27295818  0.02934248  0.64642350    -0.04200
C21         C  0.27808913  0.04848901  0.65030924     0.04500
C22         C  0.26127525  0.05886295  0.64704704     0.02600
H23         H  0.28225239  0.01678038  0.64700567     0.07700
H24         H  0.25923876  0.07434118  0.64798032     0.06500
C25         C  0.08879252  0.16325658  0.60682881     0.02500
C26         C  0.07503669  0.16352811  0.62186366    -0.13600
C27         C  0.07510226  0.14884224  0.63610718     0.00000
C28         C  0.08892862  0.13401001  0.63506649    -0.12200
C29         C  0.10300117  0.13394870  0.62051466     0.02500
C30         C  0.10283988  0.14863086  0.60648941    -0.11600
H31         H  0.06426919  0.17488232  0.62234219     0.08100
H32         H  0.08927484  0.12293065  0.64618924     0.05600
H33         H  0.11339487  0.14840202  0.59491633     0.05500
N34         N  0.22617775  0.02179221  0.87762028    -0.27900
N35         N  0.20903891  0.01617667  0.88383626    -0.35800
C36         C  0.19914990  0.03160800  0.89020099     0.00400
C37         C  0.21031455  0.04791713  0.88763568     0.06500
C38         C  0.22735749  0.04122526  0.87947284    -0.06600
H39         H  0.18438555  0.03112829  0.89520691     0.07100
H40         H  0.23954393  0.04985827  0.87494548     0.08300
Cu41       Cu  0.19785944  0.98864379  0.88091948     0.44200
Cu42       Cu  0.24671775  0.00237407  0.86659975     0.42000
Cu43       Cu  0.22709914  0.95388413  0.85752410     0.43900
N44         N  0.18804018  0.96119135  0.87445805    -0.35300
N45         N  0.19900071  0.94806638  0.86598851    -0.29500
C46         C  0.18908916  0.93139476  0.86461406    -0.05600
C47         C  0.17090467  0.93426686  0.87244643     0.06600
C48         C  0.17074988  0.95339595  0.87844317     0.00400
H49         H  0.19474986  0.91816223  0.85845463     0.08000
H50         H  0.15917881  0.96093034  0.88575697     0.07100
N51         N  0.25551402  0.96178167  0.85246112    -0.36700
N52         N  0.26309515  0.97890323  0.85643660    -0.28900
C53         C  0.28227439  0.97802927  0.85316159    -0.04200
C54         C  0.28683187  0.95959261  0.84649540     0.04500
C55         C  0.26946108  0.94980485  0.84626111     0.02600
H56         H  0.29218363  0.98984841  0.85564914     0.07700
H57         H  0.26723464  0.93470620  0.84276254     0.06500
C58         C  0.08127072  0.86266283  0.86817242     0.02500
C59         C  0.09527267  0.87730076  0.86783587    -0.13600
C60         C  0.11037417  0.87747602  0.88133266     0.00000
C61         C  0.11107498  0.86313033  0.89572798    -0.12200
C62         C  0.09681250  0.84876889  0.89675307     0.02500
C63         C  0.08200738  0.84842389  0.88278594    -0.11600
H64         H  0.09499789  0.88801188  0.85635404     0.08100
H65         H  0.12251786  0.86337184  0.90642651     0.05600
H66         H  0.07115893  0.83717092  0.88327921     0.05500
N67         N  0.13694353  0.74418610  0.03115038    -0.27900
N68         N  0.14197209  0.75070620  0.04849374    -0.35800
C69         C  0.14820600  0.73588891  0.05944550     0.00400
C70         C  0.14681718  0.71895961  0.04890203     0.06500
C71         C  0.13946233  0.72472754  0.03100397    -0.06600
H72         H  0.15233465  0.73719835  0.07450921     0.07100
H73         H  0.13595819  0.71542226  0.01890110     0.08300
Cu74       Cu  0.13766232  0.77859457  0.05887431     0.44200
Cu75       Cu  0.12651172  0.76248230  0.00871648     0.42000
Cu76       Cu  0.11422847  0.81030313  0.02706752     0.43900
N77         N  0.12899954  0.80607156  0.06740390    -0.35300
N78         N  0.12033902  0.81792402  0.05520300    -0.29500
C79         C  0.11665521  0.83479108  0.06411754    -0.05600
C80         C  0.12314829  0.83349141  0.08303346     0.06600
C81         C  0.13084036  0.81499953  0.08465289     0.00400
H82         H  0.10964129  0.84702519  0.05731647     0.08000
H83         H  0.13760506  0.80864863  0.09727115     0.07100
N84         N  0.11102207  0.80226761  0.99856070    -0.36700
N85         N  0.11612276  0.78540389  0.99105648    -0.28900
C86         C  0.11351695  0.78639550  0.97160957    -0.04200
C87         C  0.10612377  0.80462187  0.96696714     0.04500
C88         C  0.10482142  0.81411711  0.98449853     0.02600
H89         H  0.11680191  0.77480722  0.96159904     0.07700
H90         H  0.10045525  0.82897418  0.98684430     0.06500
C91         C  0.10517480  0.91076136  0.16733351     0.02500
C92         C  0.12100002  0.92345017  0.16880418    -0.13600
C93         C  0.13684439  0.92120589  0.15624774     0.00000
C94         C  0.13659152  0.90650224  0.14222857    -0.12200
C95         C  0.12100857  0.89377302  0.14085236     0.02500
C96         C  0.10539726  0.89589331  0.15346769    -0.11600
H97         H  0.12104288  0.93479389  0.17963957     0.08100
H98         H  0.14880000  0.90470953  0.13258972     0.05600
H99         H  0.09323453  0.88611848  0.15231202     0.05500
N100        N  0.51437485  0.89648882  0.27138698    -0.27900
N101        N  0.50725288  0.90105287  0.28856680    -0.35800
C102        C  0.52151465  0.90758377  0.29997135     0.00400
C103        C  0.53865522  0.90702143  0.28972858     0.06500
C104        C  0.53355137  0.89983918  0.27159866    -0.06600
H105        H  0.51967795  0.91123535  0.31509677     0.07100
H106        H  0.54313203  0.89672261  0.25964276     0.08300
Cu107      Cu  0.47934404  0.89527955  0.29767872     0.44200
Cu108      Cu  0.49750828  0.88448312  0.24918949     0.42000
Cu109      Cu  0.45304366  0.86293355  0.26791592     0.43900
N110        N  0.45328653  0.88331373  0.30626535    -0.35300
N111        N  0.44401675  0.87042666  0.29565228    -0.29500
C112        C  0.42803031  0.86481710  0.30516820    -0.05600
C113        C  0.42709008  0.87481969  0.32257574     0.06600
C114        C  0.44338047  0.88642809  0.32273348     0.00400
H115        H  0.41752738  0.85472263  0.29952223     0.08000
H116        H  0.44778857  0.89633276  0.33403499     0.07100
N117        N  0.46127679  0.86230115  0.23895042    -0.36700
N118        N  0.47662116  0.87109434  0.23174246    -0.28900
C119        C  0.47566107  0.87033574  0.21220025    -0.04200
C120        C  0.45913312  0.86026434  0.20695921     0.04500
C121        C  0.45048596  0.85540886  0.22432492     0.02600
H122        H  0.48593378  0.87704927  0.20252745     0.07700
H123        H  0.43658874  0.84857570  0.22617383     0.06500
C124        C  0.33699094  0.88653407  0.39395565     0.02500
C125        C  0.35195856  0.88678572  0.38025844    -0.13600
C126        C  0.36595691  0.87208976  0.37982353     0.00000
C127        C  0.36482077  0.85690446  0.39330327    -0.12200
C128        C  0.34999544  0.85629389  0.40714347     0.02500
C129        C  0.33607190  0.87122001  0.40748370    -0.11600
H130        H  0.35269815  0.89853661  0.36987528     0.08100
H131        H  0.37551572  0.84545737  0.39303961     0.05600
H132        H  0.32456802  0.87084933  0.41807524     0.05500
N133        N  0.23411443  0.97795742  0.13791048    -0.27900
N134        N  0.24100265  0.96028778  0.14053579    -0.35800
C135        C  0.22683559  0.94862163  0.14661063     0.00400
C136        C  0.20993005  0.95918411  0.14795344     0.06500
C137        C  0.21509356  0.97780724  0.14218845    -0.06600
H138        H  0.22873563  0.93330192  0.14918926     0.07100
H139        H  0.20572703  0.99028111  0.14105623     0.08300
Cu140      Cu  0.26885584  0.95120716  0.13496267     0.44200
Cu141      Cu  0.25144413  0.00100430  0.12829486     0.42000
Cu142      Cu  0.30070845  0.98488580  0.11535623     0.43900
N143        N  0.29684962  0.94380910  0.12788866    -0.35300
N144        N  0.30902424  0.95656503  0.12070805    -0.29500
C145        C  0.32626077  0.94799634  0.11811442    -0.05600
C146        C  0.32477332  0.92878717  0.12380672     0.06600
C147        C  0.30585354  0.92667793  0.12987387     0.00400
H148        H  0.33887125  0.95519488  0.11240495     0.08000
H149        H  0.29920468  0.91377378  0.13569348     0.07100
N150        N  0.29056852  0.01300893  0.11275400    -0.36700
N151        N  0.27333665  0.01937581  0.11799935    -0.28900
C152        C  0.27285413  0.03879297  0.11548190    -0.04200
C153        C  0.29048570  0.04472437  0.10798299     0.04500
C154        C  0.30122884  0.02794113  0.10652646     0.02600
H155        H  0.26062088  0.04790031  0.11886638     0.07700
H156        H  0.31609123  0.02671995  0.10196690     0.06500
C157        C  0.39904126  0.84184743  0.10825286     0.02500
C158        C  0.38448094  0.85591586  0.10906450    -0.13600
C159        C  0.38441704  0.87006821  0.12362688     0.00000
C160        C  0.39907809  0.86994237  0.13764073    -0.12200
C161        C  0.41351165  0.85563921  0.13745283     0.02500
C162        C  0.41345846  0.84154785  0.12264376    -0.11600
H163        H  0.37354993  0.85627733  0.09783585     0.08100
H164        H  0.39895735  0.88070100  0.14907483     0.05600
H165        H  0.42475050  0.83072162  0.12209082     0.05500
N166        N  0.88172378  0.22780121  0.01047328    -0.27900
N167        N  0.89001987  0.21195850  0.00362029    -0.35800
C168        C  0.89716291  0.20153914  0.01840035     0.00400
C169        C  0.89298750  0.21092317  0.03556517     0.06500
C170        C  0.88304146  0.22752417  0.03002628    -0.06600
H171        H  0.90367181  0.18738371  0.01685009     0.07100
H172        H  0.87682581  0.23831449  0.03951544     0.08300
Cu173      Cu  0.88802036  0.20235967  0.97523059     0.44200
Cu174      Cu  0.86825650  0.24826959  0.99236715     0.42000
Cu175      Cu  0.85429907  0.22753042  0.94580870     0.43900
N176        N  0.87864392  0.19175713  0.94874838    -0.35300
N177        N  0.86544848  0.20070338  0.93826413    -0.29500
C178        C  0.86159209  0.19003046  0.92243712    -0.05600
C179        C  0.87294612  0.17347397  0.92291955     0.06600
C180        C  0.88359121  0.17513140  0.93988056     0.00400
H181        H  0.85146085  0.19423133  0.91128999     0.08000
H182        H  0.89390666  0.16487243  0.94560740     0.07100
N183        N  0.84987652  0.25626855  0.95332111    -0.36700
N184        N  0.85567902  0.26430568  0.96971389    -0.28900
C185        C  0.85287024  0.28362727  0.96846186    -0.04200
C186        C  0.84472882  0.28787597  0.95050491     0.04500
C187        C  0.84305771  0.27007530  0.94143204     0.02600
H188        H  0.85687468  0.29385643  0.97961980     0.07700
H189        H  0.83833927  0.26740849  0.92673324     0.06500
C190        C  0.85845599  0.08537433  0.84884037     0.02500
C191        C  0.85839334  0.10007301  0.86290390    -0.13600
C192        C  0.87481018  0.11132677  0.86638895     0.00000
C193        C  0.89151767  0.10776487  0.85559146    -0.12200
C194        C  0.89193588  0.09339174  0.84116934     0.02500
C195        C  0.87529152  0.08209416  0.83781083    -0.11600
H196        H  0.84546589  0.10261907  0.87134337     0.08100
H197        H  0.90414523  0.11667958  0.85797787     0.05600
H198        H  0.87541333  0.07098471  0.82673853     0.05500
N199        N  0.98789432  0.11040237  0.78110092    -0.27900
N200        N  0.99552541  0.10948460  0.79864481    -0.35800
C201        C  0.98208576  0.10363218  0.81131260     0.00400
C202        C  0.96485623  0.10064676  0.80157297     0.06500
C203        C  0.96914819  0.10515882  0.78233705    -0.06600
H204        H  0.98468186  0.10239617  0.82670418     0.07100
H205        H  0.95929838  0.10503818  0.77019048     0.08300
Cu206      Cu  0.02342339  0.11735477  0.80595367     0.44200
Cu207      Cu  0.00369925  0.11986790  0.75675329     0.42000
Cu208      Cu  0.05186048  0.13845762  0.76944300     0.43900
N209        N  0.05146397  0.12634945  0.81095128    -0.35300
N210        N  0.06226163  0.13394236  0.79719174    -0.29500
C211        C  0.07987368  0.13774985  0.80441524    -0.05600
C212        C  0.08008677  0.13249368  0.82380085     0.06600
C213        C  0.06177653  0.12534318  0.82742036     0.00400
H214        H  0.09155129  0.14407029  0.79620561     0.08000
H215        H  0.05642159  0.11950258  0.84092174     0.07100
N216        N  0.04001381  0.13952614  0.74191711    -0.36700
N217        N  0.02331573  0.13185635  0.73670242    -0.28900
C218        C  0.02169311  0.13327475  0.71721858    -0.04200
C219        C  0.03792316  0.14266238  0.71005176     0.04500
C220        C  0.04910151  0.14637151  0.72617949     0.02600
H221        H  0.00972217  0.12771687  0.70886398     0.07700
H222        H  0.06339135  0.15261639  0.72635022     0.06500
C223        C  0.15713555  0.14907301  0.90843588     0.02500
C224        C  0.14286074  0.14949435  0.89404332    -0.13600
C225        C  0.14293971  0.13603594  0.87883376     0.00000
C226        C  0.15758219  0.12203401  0.87808720    -0.12200
C227        C  0.17162996  0.12099066  0.89272051     0.02500
C228        C  0.17147869  0.13468944  0.90782588    -0.11600
H229        H  0.13177139  0.16055003  0.89455461     0.08100
H230        H  0.15735567  0.11115641  0.86676800     0.05600
H231        H  0.18224710  0.13396375  0.91918053     0.05500
N232        N  0.02702370  0.62960127  0.27045024    -0.27900
N233        N  0.04392601  0.63597253  0.26426247    -0.35800
C234        C  0.05449857  0.64177301  0.27953694     0.00400
C235        C  0.04403341  0.63873044  0.29631792     0.06500
C236        C  0.02669696  0.63083657  0.29000698    -0.06600
H237        H  0.06909805  0.64715591  0.27854246     0.07100
H238        H  0.01471468  0.62639763  0.29897635     0.08300
Cu239      Cu  0.05324258  0.63521047  0.23559485     0.44200
Cu240      Cu  0.00515256  0.61987609  0.25157620     0.42000
Cu241      Cu  0.02124268  0.61539088  0.20103382     0.43900
N242        N  0.06079426  0.63154051  0.20664348    -0.35300
N243        N  0.04882201  0.62424714  0.19370648    -0.29500
C244        C  0.05766823  0.62355103  0.17635711    -0.05600
C245        C  0.07627377  0.63062746  0.17846983     0.06600
C246        C  0.07767301  0.63553176  0.19794384     0.00400
H247        H  0.05113319  0.61791224  0.16329568     0.08000
H248        H  0.09002248  0.64159768  0.20531366     0.07100
N249        N  0.99359869  0.60920246  0.21053830    -0.36700
N250        N  0.98713061  0.61146723  0.22843707    -0.28900
C251        C  0.96796273  0.60785146  0.22848324    -0.04200
C252        C  0.96232043  0.60276170  0.20979814     0.04500
C253        C  0.97902332  0.60381101  0.19896361     0.02600
H254        H  0.95879311  0.60902461  0.24109751     0.07700
H255        H  0.98035661  0.60173032  0.18348638     0.06500
C256        C  0.16530661  0.61845033  0.10679525     0.02500
C257        C  0.15079508  0.61924748  0.12092261    -0.13600
C258        C  0.13644084  0.63353969  0.12026319     0.00000
C259        C  0.13691331  0.64750902  0.10550647    -0.12200
C260        C  0.15181450  0.64758204  0.09170495     0.02500
C261        C  0.16593511  0.63283753  0.09226507    -0.11600
H262        H  0.15018589  0.60815960  0.13202706     0.08100
H263        H  0.12602352  0.65876880  0.10516209     0.05600
H264        H  0.17722262  0.63249570  0.08143932     0.05500
N265        N  0.63789317  0.26435163  0.02770505    -0.27900
N266        N  0.64497225  0.25664183  0.04376832    -0.35800
C267        C  0.65237576  0.27071966  0.05495031     0.00400
C268        C  0.64969515  0.28834345  0.04581755     0.06500
C269        C  0.64037409  0.28374822  0.02854966    -0.06600
H270        H  0.65800210  0.26841665  0.06939282     0.07100
H271        H  0.63520798  0.29381778  0.01771894     0.08300
Cu272      Cu  0.64127124  0.22805604  0.05225465     0.44200
Cu273      Cu  0.62384815  0.24782433  0.00622579     0.42000
Cu274      Cu  0.60602080  0.20218285  0.02547374     0.43900
N275        N  0.63126083  0.20103459  0.06067259    -0.35300
N276        N  0.61760513  0.19180922  0.05109337    -0.29500
C277        C  0.61339448  0.17525140  0.06041258    -0.05600
C278        C  0.62496987  0.17394808  0.07675332     0.06600
C279        C  0.63615283  0.19059243  0.07638403     0.00400
H280        H  0.60273171  0.16492781  0.05555346     0.08000
H281        H  0.64667093  0.19510826  0.08702874     0.07100
N282        N  0.60137700  0.21133491  0.99731715    -0.36700
N283        N  0.60899221  0.22705994  0.98952327    -0.28900
C284        C  0.60629434  0.22625297  0.97012373    -0.04200
C285        C  0.59620879  0.20939342  0.96568840     0.04500
C286        C  0.59334142  0.20047120  0.98336445     0.02600
H287        H  0.61190047  0.23673159  0.95994114     0.07700
H288        H  0.58738333  0.18620113  0.98574086     0.06500
C289        C  0.63925936  0.08889725  0.15425303     0.02500
C290        C  0.63946314  0.10308177  0.13972600    -0.13600
C291        C  0.62363662  0.11535903  0.13687924     0.00000
C292        C  0.60742039  0.11329340  0.14882575    -0.12200
C293        C  0.60701871  0.09937591  0.16370097     0.02500
C294        C  0.62309885  0.08719118  0.16648510    -0.11600
H295        H  0.65191521  0.10426795  0.13032284     0.08100
H296        H  0.59507850  0.12269305  0.14670146     0.05600
H297        H  0.62282600  0.07618173  0.17765822     0.05500
N298        N  0.75916577  0.03066287  0.86310162    -0.27900
N299        N  0.75257650  0.04849451  0.86089034    -0.35800
C300        C  0.76700631  0.06002479  0.85503957     0.00400
C301        C  0.78377382  0.04917137  0.85346779     0.06500
C302        C  0.77817943  0.03052307  0.85877074    -0.06600
H303        H  0.76547589  0.07547008  0.85303894     0.07100
H304        H  0.78732559  0.01788332  0.85986445     0.08300
Cu305      Cu  0.72486788  0.05758728  0.86793344     0.44200
Cu306      Cu  0.74155772  0.00804874  0.87322065     0.42000
Cu307      Cu  0.69701080  0.02532184  0.89656501     0.43900
N308        N  0.69785907  0.06489691  0.87874635    -0.35300
N309        N  0.68791488  0.05326028  0.89014582    -0.29500
C310        C  0.67101735  0.06176398  0.89459203    -0.05600
C311        C  0.67016876  0.07961099  0.88539359     0.06600
C312        C  0.68751142  0.08107162  0.87549668     0.00400
H313        H  0.65981381  0.05503631  0.90313821     0.08000
H314        H  0.69222677  0.09292814  0.86643670     0.07100
N315        N  0.70516336  0.99641770  0.89482536    -0.36700
N316        N  0.72040310  0.98989468  0.88529487    -0.28900
C317        C  0.71937155  0.97038737  0.88447514    -0.04200
C318        C  0.70292512  0.96440510  0.89424576     0.04500
C319        C  0.69437873  0.98133208  0.90062381     0.02600
H320        H  0.72962534  0.96125064  0.87700388     0.07700
H321        H  0.68060259  0.98266795  0.90783352     0.06500
C322        C  0.59003024  0.16173432  0.89778361     0.02500
C323        C  0.60505364  0.14810646  0.89810087    -0.13600
C324        C  0.60609365  0.13343843  0.88412824     0.00000
C325        C  0.59189270  0.13235589  0.86969605    -0.12200
C326        C  0.57660474  0.14576456  0.86913229     0.02500
C327        C  0.57574163  0.16047370  0.88331516    -0.11600
H328        H  0.61603989  0.14896758  0.90924577     0.08100
H329        H  0.59293728  0.12120691  0.85869444     0.05600
H330        H  0.56411637  0.17095141  0.88302106     0.05500
N331        N  0.48126194  0.10704558  0.72888242    -0.27900
N332        N  0.48862032  0.10579288  0.71126243    -0.35800
C333        C  0.47498847  0.09984615  0.69884733     0.00400
C334        C  0.45789131  0.09719767  0.70882870     0.06500
C335        C  0.46243168  0.10198791  0.72794916    -0.06600
H336        H  0.47727955  0.09850940  0.68342548     0.07100
H337        H  0.45270319  0.10219593  0.74016573     0.08300
Cu338      Cu  0.51620688  0.11383701  0.70333615     0.44200
Cu339      Cu  0.49774287  0.11677813  0.75269287     0.42000
Cu340      Cu  0.54581220  0.13564551  0.73811660     0.43900
N341        N  0.54369860  0.12328058  0.69677191    -0.35300
N342        N  0.55511213  0.13114159  0.70987154    -0.29500
C343        C  0.57224117  0.13513629  0.70161382    -0.05600
C344        C  0.57141722  0.12973242  0.68224662     0.06600
C345        C  0.55304185  0.12230649  0.67974826     0.00400
H346        H  0.58429387  0.14166689  0.70909625     0.08000
H347        H  0.54700000  0.11626740  0.66662515     0.07100
N348        N  0.53470597  0.13657006  0.76604969    -0.36700
N349        N  0.51825339  0.12876921  0.77186534    -0.28900
C350        C  0.51749262  0.12986072  0.79142592    -0.04200
C351        C  0.53396834  0.13921771  0.79801150     0.04500
C352        C  0.54441923  0.14322928  0.78150698     0.02600
H353        H  0.50600418  0.12398655  0.80022149     0.07700
H354        H  0.55872073  0.14941859  0.78088217     0.06500
C355        C  0.65977825  0.11979236  0.60877270     0.02500
C356        C  0.65954094  0.13447153  0.59460264    -0.13600
C357        C  0.64512446  0.14884503  0.59491539     0.00000
C358        C  0.63078723  0.14820221  0.60925810    -0.12200
C359        C  0.63106114  0.13383031  0.62365560     0.02500
C360        C  0.64572173  0.11981428  0.62340214    -0.11600
H361        H  0.67046556  0.13468664  0.58339964     0.08100
H362        H  0.61971387  0.15928043  0.60954275     0.05600
H363        H  0.64575737  0.10839880  0.63418254     0.05500
N364        N  0.77454896  0.98955778  0.11455860    -0.27900
N365        N  0.79168160  0.99571486  0.10884806    -0.35800
C366        C  0.80227137  0.98058275  0.10285451     0.00400
C367        C  0.79160370  0.96388049  0.10513785     0.06500
C368        C  0.77408583  0.97007584  0.11273025    -0.06600
H369        H  0.81718647  0.98153941  0.09840598     0.07100
H370        H  0.76209191  0.96105253  0.11700732     0.08300
Cu371      Cu  0.80191480  0.02362905  0.11224337     0.44200
Cu372      Cu  0.75311577  0.00835675  0.12523756     0.42000
Cu373      Cu  0.77080784  0.05739932  0.13487653     0.43900
N374        N  0.81067834  0.05130731  0.11950974    -0.35300
N375        N  0.79901588  0.06396983  0.12772983    -0.29500
C376        C  0.80846022  0.08077992  0.13015349    -0.05600
C377        C  0.82708937  0.07853955  0.12325002     0.06600
C378        C  0.82797483  0.05959367  0.11668944     0.00400
H379        H  0.80219745  0.09363959  0.13650851     0.08000
H380        H  0.84011005  0.05247312  0.10990832     0.07100
N381        N  0.74270915  0.04854773  0.13964826    -0.36700
N382        N  0.73578581  0.03116344  0.13561290    -0.28900
C383        C  0.71664602  0.03123994  0.13923627    -0.04200
C384        C  0.71145132  0.04942761  0.14617207     0.04500
C385        C  0.72840938  0.05991189  0.14617647     0.02600
H386        H  0.70720374  0.01900928  0.13691945     0.07700
H387        H  0.73014003  0.07502158  0.14990765     0.06500
C388        C  0.90015160  0.16628615  0.10548426     0.02500
C389        C  0.88589910  0.15186974  0.10597481    -0.13600
C390        C  0.88687900  0.13669197  0.11945548     0.00000
C391        C  0.90215321  0.13612593  0.13273882    -0.12200
C392        C  0.91607978  0.15082300  0.13308795     0.02500
C393        C  0.91516062  0.16583244  0.11926934    -0.11600
H394        H  0.87433418  0.15211048  0.09540896     0.08100
H395        H  0.90260675  0.12477009  0.14357611     0.05600
H396        H  0.92595163  0.17715164  0.11934337     0.05500
N397        N  0.00956017  0.89226332  0.22620941    -0.27900
N398        N  0.00232389  0.89482082  0.20866384    -0.35800
C399        C  0.01609107  0.90146042  0.19680819     0.00400
C400        C  0.03310103  0.90319767  0.20711817     0.06500
C401        C  0.02842215  0.89713377  0.22579165    -0.06600
H402        H  0.01393270  0.90398791  0.18149782     0.07100
H403        H  0.03805113  0.89604635  0.23807367     0.08300
Cu404      Cu  0.97462883  0.88813024  0.20008321     0.44200
Cu405      Cu  0.99294354  0.88161270  0.24934281     0.42000
Cu406      Cu  0.94350770  0.86776621  0.23420148     0.43900
N407        N  0.94662975  0.88084741  0.19318445    -0.35300
N408        N  0.93463112  0.87356555  0.20606276    -0.29500
C409        C  0.91730493  0.87097511  0.19764439    -0.05600
C410        C  0.91860165  0.87673377  0.17841062     0.06600
C411        C  0.93746453  0.88287556  0.17615285     0.00400
H412        H  0.90480603  0.86510913  0.20491462     0.08000
H413        H  0.94400064  0.88872328  0.16319378     0.07100
N414        N  0.95457901  0.86460852  0.26198824    -0.36700
N415        N  0.97180970  0.87026303  0.26799880    -0.28900
C416        C  0.97276423  0.86775504  0.28741282    -0.04200
C417        C  0.95545739  0.85984221  0.29373502     0.04500
C418        C  0.94441722  0.85807049  0.27716480     0.02600
H419        H  0.98499998  0.87168191  0.29629580     0.07700
H420        H  0.92957382  0.85337632  0.27632515     0.06500
C421        C  0.83207337  0.89131152  0.10309068     0.02500
C422        C  0.84570045  0.89089765  0.11815856    -0.13600
C423        C  0.85943133  0.87602357  0.11925367     0.00000
C424        C  0.85906685  0.86111435  0.10547152    -0.12200
C425        C  0.84521014  0.86095139  0.09066484     0.02500
C426        C  0.83186794  0.87626738  0.08928552    -0.11600
H427        H  0.84606776  0.90258545  0.12863571     0.08100
H428        H  0.86934730  0.84932680  0.10652044     0.05600
H429        H  0.82122793  0.87631519  0.07779148     0.05500
N430        N  0.86140757  0.74912377  0.53715208    -0.27900
N431        N  0.85761619  0.75716433  0.55409481    -0.35800
C432        C  0.85240039  0.74351071  0.56682006     0.00400
C433        C  0.85287087  0.72560265  0.55780498     0.06500
C434        C  0.85863346  0.72978782  0.53884390    -0.06600
H435        H  0.84925165  0.74660156  0.58182738     0.07100
H436        H  0.86127520  0.71950440  0.52733552     0.08300
Cu437      Cu  0.86178456  0.78583017  0.56110031     0.44200
Cu438      Cu  0.87159146  0.76579550  0.51358685     0.42000
Cu439      Cu  0.88779707  0.81497079  0.52925916     0.43900
N440        N  0.87034617  0.81334879  0.56861414    -0.35300
N441        N  0.88079223  0.82427649  0.55701753    -0.29500
C442        C  0.88462218  0.84112995  0.56606123    -0.05600
C443        C  0.87599078  0.84073133  0.58422263     0.06600
C444        C  0.86709646  0.82283747  0.58527181     0.00400
H445        H  0.89270042  0.85291999  0.55973036     0.08000
H446        H  0.85903376  0.81699159  0.59732842     0.07100
N447        N  0.88963894  0.80416493  0.50119172    -0.36700
N448        N  0.88313781  0.78721440  0.49500748    -0.28900
C449        C  0.88525993  0.78653741  0.47552049    -0.04200
C450        C  0.89378062  0.80369116  0.46932090     0.04500
C451        C  0.89627539  0.81438050  0.48605629     0.02600
H452        H  0.88084189  0.77451388  0.46651867     0.07700
H453        H  0.90172507  0.82901027  0.48709614     0.06500
C454        C  0.85926941  0.92647078  0.66042617     0.02500
C455        C  0.85922816  0.91167150  0.64644749    -0.13600
C456        C  0.87562859  0.90022437  0.64332452     0.00000
C457        C  0.89207503  0.90342834  0.65463114    -0.12200
C458        C  0.89227081  0.91776619  0.66904441     0.02500
C459        C  0.87582629  0.92942380  0.67188617    -0.11600
H460        H  0.84649639  0.90939885  0.63762629     0.08100
H461        H  0.90472413  0.89445671  0.65246851     0.05600
H462        H  0.87592564  0.94065537  0.68283783     0.05500
N463        N  0.63310624  0.74307735  0.46433754    -0.27900
N464        N  0.63831718  0.74995812  0.44721485    -0.35800
C465        C  0.64394143  0.73529801  0.43575660     0.00400
C466        C  0.64200528  0.71810761  0.44578160     0.06500
C467        C  0.63494477  0.72355934  0.46388250    -0.06600
H468        H  0.64822356  0.73698024  0.42078056     0.07100
H469        H  0.63130700  0.71402726  0.47576148     0.08300
Cu470      Cu  0.63568705  0.77844759  0.43822043     0.44200
Cu471      Cu  0.62367518  0.76115473  0.48727265     0.42000
Cu472      Cu  0.61692148  0.81158027  0.47172490     0.43900
N473        N  0.62986532  0.80690760  0.43082790    -0.35300
N474        N  0.62313245  0.81942931  0.44356083    -0.29500
C475        C  0.62077060  0.83670431  0.43490999    -0.05600
C476        C  0.62609437  0.83492477  0.41563506     0.06600
C477        C  0.63176069  0.81576864  0.41358186     0.00400
H478        H  0.61521029  0.84947003  0.44206421     0.08000
H479        H  0.63703090  0.80879470  0.40059176     0.07100
N480        N  0.61190497  0.80175044  0.49951776    -0.36700
N481        N  0.61496397  0.78393093  0.50589129    -0.28900
C482        C  0.61171322  0.78373689  0.52524553    -0.04200
C483        C  0.60599786  0.80220579  0.53102999     0.04500
C484        C  0.60632283  0.81307887  0.51426513     0.02600
H485        H  0.61349419  0.77117860  0.53444020     0.07700
H486        H  0.60355873  0.82844557  0.51299092     0.06500
C487        C  0.61112794  0.91121827  0.32967981     0.02500
C488        C  0.62679821  0.92414792  0.32888782    -0.13600
C489        C  0.64220946  0.92210229  0.34202443     0.00000
C490        C  0.64164761  0.90740483  0.35603362    -0.12200
C491        C  0.62613553  0.89450077  0.35686817     0.02500
C492        C  0.61102586  0.89634897  0.34354047    -0.11600
H493        H  0.62702902  0.93558641  0.31815368     0.08100
H494        H  0.65350490  0.90583247  0.36615961     0.05600
H495        H  0.59887935  0.88651826  0.34428669     0.05500
N496        N  0.77873897  0.02108209  0.38101419    -0.27900
N497        N  0.79559883  0.01481295  0.38752723    -0.35800
C498        C  0.80630062  0.03003436  0.39309047     0.00400
C499        C  0.79599777  0.04682555  0.38971577     0.06500
C500        C  0.77860600  0.04063640  0.38189636    -0.06600
H501        H  0.82092987  0.02899031  0.39842355     0.07100
H502        H  0.76675901  0.04968088  0.37718611     0.08300
Cu503      Cu  0.80520221  0.98627187  0.38696961     0.44200
Cu504      Cu  0.75662785  0.00257580  0.37129621     0.42000
Cu505      Cu  0.77250647  0.95230624  0.36844207     0.43900
N506        N  0.81274064  0.95743482  0.38273360    -0.35300
N507        N  0.80023741  0.94470128  0.37606925    -0.29500
C508        C  0.80888425  0.92736527  0.37436655    -0.05600
C509        C  0.82794056  0.92926104  0.38004214     0.06600
C510        C  0.82986230  0.94858870  0.38525563     0.00400
H511        H  0.80193669  0.91450835  0.36879147     0.08000
H512        H  0.84274285  0.95572993  0.39041481     0.07100
N513        N  0.74518518  0.96160602  0.36117667    -0.36700
N514        N  0.73871476  0.97956820  0.36257119    -0.28900
C515        C  0.71985749  0.97966914  0.35755060    -0.04200
C516        C  0.71447712  0.96091063  0.35248787     0.04500
C517        C  0.73097898  0.95000011  0.35505053     0.02600
H518        H  0.71076832  0.99240043  0.35756688     0.07700
H519        H  0.73247824  0.93451856  0.35323803     0.06500
C520        C  0.91589625  0.85511733  0.36634618     0.02500
C521        C  0.91602042  0.84142132  0.38147870    -0.13600
C522        C  0.90157613  0.84189500  0.39580681     0.00000
C523        C  0.88696643  0.85591616  0.39471261    -0.12200
C524        C  0.88695409  0.86988848  0.37996270     0.02500
C525        C  0.90155603  0.86947260  0.36591983    -0.11600
H526        H  0.92716911  0.83044462  0.38203398     0.08100
H527        H  0.87597848  0.85640716  0.40586048     0.05600
H528        H  0.90137176  0.87992289  0.35419864     0.05500
N529        N  0.76181424  0.98331948  0.64240564    -0.27900
N530        N  0.75558624  0.96527665  0.64381070    -0.35800
C531        C  0.76987447  0.95387368  0.65016270     0.00400
C532        C  0.78624050  0.96492492  0.65293596     0.06500
C533        C  0.78061955  0.98363260  0.64772861    -0.06600
H534        H  0.76853174  0.93836845  0.65180891     0.07100
H535        H  0.78956954  0.99644055  0.64761943     0.08300
Cu536      Cu  0.72865745  0.95513388  0.63600740     0.44200
Cu537      Cu  0.74373394  0.00607755  0.63282674     0.42000
Cu538      Cu  0.69579679  0.98839346  0.61727594     0.43900
N539        N  0.70134175  0.94678674  0.62746839    -0.35300
N540        N  0.68877595  0.95947108  0.62079533    -0.29500
C541        C  0.67201150  0.95041160  0.61720469    -0.05600
C542        C  0.67418520  0.93094238  0.62167148     0.06600
C543        C  0.69305533  0.92919107  0.62809226     0.00400
H544        H  0.65923461  0.95749357  0.61167381     0.08000
H545        H  0.70010001  0.91622449  0.63331928     0.07100
N546        N  0.70461571  0.01701108  0.61589928    -0.36700
N547        N  0.72127340  0.02392126  0.62222492    -0.28900
C548        C  0.72074850  0.04345192  0.62075461    -0.04200
C549        C  0.70312282  0.04889382  0.61278328     0.04500
C550        C  0.69340891  0.03170443  0.60991765     0.02600
H551        H  0.73221991  0.05300009  0.62534420     0.07700
H552        H  0.67876632  0.03003649  0.60479197     0.06500
C553        C  0.60058011  0.84325721  0.60326924     0.02500
C554        C  0.58657283  0.84289430  0.61803960    -0.13600
C555        C  0.58714737  0.85664768  0.63309973     0.00000
C556        C  0.60156143  0.87085554  0.63309515    -0.12200
C557        C  0.61573441  0.87121867  0.61861359     0.02500
C558        C  0.61526204  0.85724266  0.60385215    -0.11600
H559        H  0.57534755  0.83201261  0.61782116     0.08100
H560        H  0.60207178  0.88134089  0.64477480     0.05600
H561        H  0.62593224  0.85765978  0.59239659     0.05500
N562        N  0.52644491  0.86943646  0.72986693    -0.27900
N563        N  0.54342198  0.86428589  0.73694967    -0.35800
C564        C  0.55519444  0.85930630  0.72235310     0.00400
C565        C  0.54545652  0.86154289  0.70502486     0.06500
C566        C  0.52723712  0.86814685  0.71031368    -0.06600
H567        H  0.57010276  0.85509987  0.72421936     0.07100
H568        H  0.51546885  0.87174000  0.70067171     0.08300
Cu569      Cu  0.55147895  0.86603249  0.76577710     0.44200
Cu570      Cu  0.50335122  0.87807136  0.74779748     0.42000
Cu571      Cu  0.51867889  0.88844854  0.79778132     0.43900
N572        N  0.55853721  0.87236346  0.79421272    -0.35300
N573        N  0.54636549  0.88085135  0.80618861    -0.29500
C574        C  0.55506645  0.88343378  0.82342962    -0.05600
C575        C  0.57375732  0.87636468  0.82218323     0.06600
C576        C  0.57539002  0.86945827  0.80338427     0.00400
H577        H  0.54836803  0.89029556  0.83579971     0.08000
H578        H  0.58787581  0.86279171  0.79679329     0.07100
N579        N  0.49072596  0.89180047  0.78765820    -0.36700
N580        N  0.48457131  0.88702101  0.77013151    -0.28900
C581        C  0.46516841  0.88897545  0.76973242    -0.04200
C582        C  0.45903727  0.89570779  0.78770393     0.04500
C583        C  0.47567543  0.89731732  0.79856620     0.02600
H584        H  0.45618693  0.88567974  0.75734951     0.07700
H585        H  0.47667502  0.90129546  0.81369678     0.06500
C586        C  0.64783172  0.86260604  0.90986181     0.02500
C587        C  0.66171723  0.87749928  0.90996757    -0.13600
C588        C  0.66115982  0.89223879  0.89581519     0.00000
C589        C  0.64692013  0.89162820  0.88135196    -0.12200
C590        C  0.63283936  0.87711068  0.88136754     0.02500
C591        C  0.63324236  0.86279754  0.89574618    -0.11600
H592        H  0.67281954  0.87765496  0.92101035     0.08100
H593        H  0.64632588  0.90292597  0.87046140     0.05600
H594        H  0.62254018  0.85137795  0.89554221     0.05500
N595        N  0.50807997  0.61876680  0.77562050    -0.27900
N596        N  0.50128699  0.61639844  0.79336804    -0.35800
C597        C  0.51543327  0.61015114  0.80503390     0.00400
C598        C  0.53226437  0.60845797  0.79442677     0.06500
C599        C  0.52704292  0.61414999  0.77574363    -0.06600
H600        H  0.51360934  0.60780406  0.82040941     0.07100
H601        H  0.53636612  0.61510369  0.76323195     0.08300
Cu602      Cu  0.47366954  0.62275785  0.80262783     0.44200
Cu603      Cu  0.49070630  0.62865343  0.75251067     0.42000
Cu604      Cu  0.44146713  0.64118964  0.76827819     0.43900
N605        N  0.44570070  0.63009681  0.80984026    -0.35300
N606        N  0.43343870  0.63666486  0.79679227    -0.29500
C607        C  0.41616199  0.63932347  0.80519696    -0.05600
C608        C  0.41768810  0.63434141  0.82460272     0.06600
C609        C  0.43669122  0.62861456  0.82702476     0.00400
H610        H  0.40346873  0.64452657  0.79772083     0.08000
H611        H  0.44335002  0.62324068  0.84014533     0.07100
N612        N  0.45137148  0.64365775  0.74009449    -0.36700
N613        N  0.46873754  0.63873836  0.73386666    -0.28900
C614        C  0.46912312  0.64091275  0.71438981    -0.04200
C615        C  0.45123171  0.64772110  0.70821337     0.04500
C616        C  0.44048852  0.64923905  0.72501107     0.02600
H617        H  0.48140532  0.63750502  0.70537009     0.07700
H618        H  0.42545606  0.65322231  0.72617078     0.06500
C619        C  0.32889828  0.61723486  0.89604643     0.02500
C620        C  0.34328215  0.61836261  0.88181340    -0.13600
C621        C  0.35716023  0.63311478  0.88227063     0.00000
C622        C  0.35631054  0.64708877  0.89699580    -0.12200
C623        C  0.34171373  0.64657754  0.91104706     0.02500
C624        C  0.32804131  0.63149335  0.91065641    -0.11600
H625        H  0.34414190  0.60720190  0.87080233     0.08100
H626        H  0.36672162  0.65877612  0.89721854     0.05600
H627        H  0.31692008  0.63080933  0.92163744     0.05500
N628        N  0.37985800  0.78372493  0.01094117    -0.27900
N629        N  0.38382898  0.80112978  0.00394763    -0.35800
C630        C  0.39009803  0.81255869  0.01836198     0.00400
C631        C  0.39000471  0.80217918  0.03549910     0.06500
C632        C  0.38329418  0.78391191  0.03025599    -0.06600
H633        H  0.39371032  0.82767975  0.01656024     0.07100
H634        H  0.38098719  0.77170566  0.03979071     0.08300
Cu635      Cu  0.37932121  0.81043891  0.97566254     0.44200
Cu636      Cu  0.36961980  0.76071044  0.99354630     0.42000
Cu637      Cu  0.35710683  0.77731095  0.94467423     0.43900
N638        N  0.37238107  0.81756452  0.94725119    -0.35300
N639        N  0.36427042  0.80487874  0.93553191    -0.29500
C640        C  0.36201504  0.81290140  0.91791406    -0.05600
C641        C  0.36884571  0.83173019  0.91860639     0.06600
C642        C  0.37525013  0.83420558  0.93750703     0.00400
H643        H  0.35571663  0.80560402  0.90557759     0.08000
H644        H  0.38186109  0.84700114  0.94361283     0.07100
N645        N  0.35335337  0.74926540  0.95441423    -0.36700
N646        N  0.35866339  0.74246820  0.97153769    -0.28900
C647        C  0.35592107  0.72305010  0.97152460    -0.04200
C648        C  0.34820458  0.71762222  0.95366914     0.04500
C649        C  0.34684154  0.73470744  0.94336735     0.02600
H650        H  0.35945156  0.71357231  0.98349367     0.07700
H651        H  0.34238666  0.73635586  0.92843201     0.06500
C652        C  0.35699590  0.91607183  0.84017989     0.02500
C653        C  0.35658128  0.90211000  0.85492824    -0.13600
C654        C  0.37069015  0.88758932  0.85597507     0.00000
C655        C  0.38538793  0.88714851  0.84199567    -0.12200
C656        C  0.38640555  0.90138990  0.82747412     0.02500
C657        C  0.37208276  0.91585041  0.82655674    -0.11600
H658        H  0.34494280  0.90231483  0.86539866     0.08100
H659        H  0.39656783  0.87621484  0.84292087     0.05600
H660        H  0.37265725  0.92679579  0.81532920     0.05500
N661        N  0.61085297  0.72536406  0.00811251    -0.27900
N662        N  0.60430831  0.70918977  0.00025456    -0.35800
C663        C  0.59791283  0.69734168  0.01426163     0.00400
C664        C  0.60073870  0.70617668  0.03198848     0.06500
C665        C  0.60911190  0.72393579  0.02757633    -0.06600
H666        H  0.59275131  0.68277600  0.01178523     0.07100
H667        H  0.61391971  0.73480442  0.03776824     0.08300
Cu668      Cu  0.60751607  0.70177482  0.97142726     0.44200
Cu669      Cu  0.62264534  0.74784979  0.99127033     0.42000
Cu670      Cu  0.63944525  0.73099554  0.94375775     0.43900
N671        N  0.61729497  0.69382317  0.94429062    -0.35300
N672        N  0.62971373  0.70422783  0.93425272    -0.29500
C673        C  0.63379330  0.69490145  0.91762486    -0.05600
C674        C  0.62339273  0.67774373  0.91719061     0.06600
C675        C  0.61311565  0.67761304  0.93440632     0.00400
H676        H  0.64339751  0.70038481  0.90658618     0.08000
H677        H  0.60353830  0.66642993  0.93961161     0.07100
N678        N  0.64210896  0.75927249  0.95355440    -0.36700
N679        N  0.63483725  0.76594233  0.96998601    -0.28900
C680        C  0.63612134  0.78546650  0.96984407    -0.04200
C681        C  0.64499133  0.79121061  0.95272369     0.04500
C682        C  0.64859400  0.77417256  0.94288159     0.02600
H683        H  0.63052754  0.79482150  0.98108652     0.07700
H684        H  0.65414532  0.77280711  0.92829939     0.06500
C685        C  0.63850642  0.59166167  0.84119082     0.02500
C686        C  0.63886946  0.60661785  0.85496613    -0.13600
C687        C  0.62276347  0.61851453  0.85782607     0.00000
C688        C  0.60627683  0.61559078  0.84648856    -0.12200
C689        C  0.60579168  0.60111137  0.83223233     0.02500
C690        C  0.62194397  0.58898576  0.82964759    -0.11600
H691        H  0.65158681  0.60863772  0.86387341     0.08100
H692        H  0.59380519  0.62483282  0.84855730     0.05600
H693        H  0.62158809  0.57756535  0.81890045     0.05500
N694        N  0.78164104  0.52014778  0.61475322    -0.27900
N695        N  0.79911459  0.51377377  0.61040822    -0.35800
C696        C  0.81014331  0.52870231  0.60483294     0.00400
C697        C  0.79941754  0.54555824  0.60576499     0.06500
C698        C  0.78135513  0.53958039  0.61223248    -0.06600
H699        H  0.82526834  0.52741459  0.60128950     0.07100
H700        H  0.76902461  0.54870700  0.61517489     0.08300
Cu701      Cu  0.80911012  0.48565897  0.61367536     0.44200
Cu702      Cu  0.75934546  0.50175333  0.62447201     0.42000
Cu703      Cu  0.77628129  0.45193994  0.63192457     0.43900
N704        N  0.81697913  0.45719155  0.61899187    -0.35300
N705        N  0.80443835  0.44445075  0.62554053    -0.29500
C706        C  0.81317680  0.42717693  0.62745273    -0.05600
C707        C  0.83230058  0.42914648  0.62199991     0.06600
C708        C  0.83418862  0.44845328  0.61675677     0.00400
H709        H  0.80618214  0.41425207  0.63279193     0.08000
H710        H  0.84703817  0.45559565  0.61153746     0.07100
N711        N  0.74839022  0.46118221  0.63716599    -0.36700
N712        N  0.74163901  0.47884880  0.63412762    -0.28900
C713        C  0.72254965  0.47884760  0.63816239    -0.04200
C714        C  0.71722486  0.46036386  0.64425272     0.04500
C715        C  0.73408435  0.44970398  0.64334785     0.02600
H716        H  0.71323706  0.49133126  0.63671286     0.07700
H717        H  0.73579841  0.43442140  0.64629496     0.06500
C718        C  0.90556444  0.34074463  0.60878208     0.02500
C719        C  0.89152146  0.35536590  0.60859758    -0.13600
C720        C  0.89081781  0.36932525  0.62332544     0.00000
C721        C  0.90424696  0.36845206  0.63850189    -0.12200
C722        C  0.91798579  0.35351513  0.63933934     0.02500
C723        C  0.91867665  0.33965529  0.62434921    -0.11600
H724        H  0.88146622  0.35622755  0.59659409     0.08100
H725        H  0.90358025  0.37904091  0.65007753     0.05600
H726        H  0.92943804  0.32828727  0.62468447     0.05500
N727        N  0.97664204  0.63239396  0.77095435    -0.27900
N728        N  0.96181647  0.64216550  0.76382277    -0.35800
C729        C  0.95134559  0.64944571  0.77847696     0.00400
C730        C  0.95960077  0.64381944  0.79580828     0.06500
C731        C  0.97560607  0.63291488  0.79050341    -0.06600
H732        H  0.93781035  0.65701828  0.77663673     0.07100
H733        H  0.98544048  0.62546954  0.80013229     0.08300
Cu734      Cu  0.95312038  0.64199311  0.73505735     0.44200
Cu735      Cu  0.99691358  0.61794193  0.75345841     0.42000
Cu736      Cu  0.97789479  0.60872269  0.70523938     0.43900
N737        N  0.94278068  0.63382584  0.70805554    -0.35300
N738        N  0.95167322  0.62079400  0.69730881    -0.29500
C739        C  0.94115258  0.61741126  0.68129003    -0.05600
C740        C  0.92473894  0.62890189  0.68192248     0.06600
C741        C  0.92633343  0.63915120  0.69916418     0.00400
H742        H  0.94529341  0.60742376  0.66996635     0.08000
H743        H  0.91609558  0.64936816  0.70508994     0.07100
N744        N  0.00561236  0.60146989  0.71386259    -0.36700
N745        N  0.01312808  0.60519592  0.73106746    -0.28900
C746        C  0.03210879  0.60075299  0.73054821    -0.04200
C747        C  0.03669739  0.59384510  0.71211755     0.04500
C748        C  0.01937410  0.59452651  0.70211230     0.02600
H749        H  0.04195521  0.60314158  0.74245729     0.07700
H750        H  0.01704017  0.59146402  0.68693605     0.06500
C751        C  0.83829467  0.61885376  0.60512566     0.02500
C752        C  0.83653386  0.63592233  0.59408115    -0.13600
C753        C  0.84847276  0.65194400  0.59807286     0.00000
C754        C  0.86215261  0.65060947  0.61307271    -0.12200
C755        C  0.86436442  0.63350664  0.62381843     0.02500
C756        C  0.85236547  0.61770203  0.61971250    -0.11600
H757        H  0.82582957  0.63681063  0.58268214     0.08100
H758        H  0.87152365  0.66280676  0.61600743     0.05600
H759        H  0.85378301  0.60448484  0.62806710     0.05500
N760        N  0.77128042  0.49064487  0.88481881    -0.27900
N761        N  0.78835855  0.49648247  0.89107902    -0.35800
C762        C  0.79846435  0.48111461  0.89737574     0.00400
C763        C  0.78754817  0.46461241  0.89471605     0.06500
C764        C  0.77038712  0.47118029  0.88661966    -0.06600
H765        H  0.81327329  0.48175850  0.90224664     0.07100
H766        H  0.75837661  0.46239955  0.88188705     0.08300
Cu767      Cu  0.79935737  0.52424703  0.88806486     0.44200
Cu768      Cu  0.75043808  0.50954750  0.87310484     0.42000
Cu769      Cu  0.76923291  0.55807323  0.86439702     0.43900
N770        N  0.80849688  0.55203497  0.88134102    -0.35300
N771        N  0.79706769  0.56474225  0.87283633    -0.29500
C772        C  0.80655695  0.58157450  0.87075166    -0.05600
C773        C  0.82500201  0.57930865  0.87811804     0.06600
C774        C  0.82573478  0.56032532  0.88463611     0.00400
H775        H  0.80053156  0.59441773  0.86412010     0.08000
H776        H  0.83777650  0.55315580  0.89155717     0.07100
N777        N  0.74132401  0.54966737  0.85799312    -0.36700
N778        N  0.73389880  0.53240464  0.86154032    -0.28900
C779        C  0.71495765  0.53287214  0.85690680    -0.04200
C780        C  0.71039282  0.55126117  0.84993195     0.04500
C781        C  0.72758215  0.56136525  0.85089863     0.02600
H782        H  0.70519159  0.52082601  0.85876560     0.07700
H783        H  0.72985439  0.57648984  0.84758071     0.06500
C784        C  0.91491614  0.65017327  0.86579833     0.02500
C785        C  0.91510335  0.66476614  0.88008874    -0.13600
C786        C  0.90050809  0.66549476  0.89426932     0.00000
C787        C  0.88558941  0.65177428  0.89379880    -0.12200
C788        C  0.88547838  0.63694561  0.87990448     0.02500
C789        C  0.90025480  0.63618637  0.86607214    -0.11600
H790        H  0.92655727  0.67540735  0.88023014     0.08100
H791        H  0.87446152  0.65216602  0.90480713     0.05600
H792        H  0.89996996  0.62503969  0.85501877     0.05500
N793        N  0.97185617  0.36800459  0.73923305    -0.27900
N794        N  0.95578937  0.35962713  0.74526594    -0.35800
C795        C  0.94614574  0.35259142  0.72990983     0.00400
C796        C  0.95631146  0.35690083  0.71322442     0.06500
C797        C  0.97255155  0.36675984  0.71970681    -0.06600
H798        H  0.93201388  0.34605218  0.73074042     0.07100
H799        H  0.98376479  0.37305012  0.71084453     0.08300
Cu800      Cu  0.94510264  0.36090651  0.77337345     0.44200
Cu801      Cu  0.99159441  0.38164155  0.75795854     0.42000
Cu802      Cu  0.97178818  0.39045533  0.80575051     0.43900
N803        N  0.93476838  0.36875981  0.80052206    -0.35300
N804        N  0.94456377  0.38020979  0.81223258    -0.29500
C805        C  0.93397437  0.38384366  0.82811399    -0.05600
C806        C  0.91652505  0.37423492  0.82639040     0.06600
C807        C  0.91760643  0.36474767  0.80866974     0.00400
H808        H  0.93870776  0.39287073  0.83999482     0.08000
H809        H  0.90654180  0.35606255  0.80188399     0.07100
N810        N  0.99984697  0.39701415  0.79811540    -0.36700
N811        N  0.00757057  0.39360644  0.78095477    -0.28900
C812        C  0.02654569  0.39791761  0.78185625    -0.04200
C813        C  0.03092855  0.40437492  0.80050375     0.04500
C814        C  0.01347499  0.40356756  0.81024863     0.02600
H815        H  0.03650014  0.39584357  0.76999394     0.07700
H816        H  0.01087565  0.40652304  0.82539856     0.06500
C817        C  0.83750223  0.35951004  0.90839156     0.02500
C818        C  0.82473771  0.37532184  0.90992929    -0.13600
C819        C  0.82618578  0.39098228  0.89688917     0.00000
C820        C  0.84067691  0.39082719  0.88267800    -0.12200
C821        C  0.85346948  0.37517810  0.88118375     0.02500
C822        C  0.85167739  0.35952961  0.89393527    -0.11600
H823        H  0.81376451  0.37540695  0.92108283     0.08100
H824        H  0.84209968  0.40299545  0.87286120     0.05600
H825        H  0.86158651  0.34742952  0.89282736     0.05500
N826        N  0.23568050  0.47359573  0.86333358    -0.27900
N827        N  0.24247106  0.45569353  0.86328443    -0.35800
C828        C  0.22838058  0.44336405  0.85841594     0.00400
C829        C  0.21158404  0.45369032  0.85510889     0.06500
C830        C  0.21677268  0.47292090  0.85849807    -0.06600
H831        H  0.23033702  0.42785422  0.85773816     0.07100
H832        H  0.20750751  0.48548425  0.85753782     0.08300
Cu833      Cu  0.27039574  0.44740037  0.86966167     0.44200
Cu834      Cu  0.25316941  0.49769870  0.87023907     0.42000
Cu835      Cu  0.30333050  0.48325903  0.88221935     0.43900
N836        N  0.29908242  0.44104876  0.87459070    -0.35300
N837        N  0.31170622  0.45460870  0.87895982    -0.29500
C838        C  0.32932597  0.44653530  0.88031978    -0.05600
C839        C  0.32765013  0.42681920  0.87673042     0.06600
C840        C  0.30818931  0.42392260  0.87319516     0.00400
H841        H  0.34233893  0.45444589  0.88370672     0.08000
H842        H  0.30118756  0.41047372  0.86937447     0.07100
N843        N  0.29269497  0.51131248  0.88374380    -0.36700
N844        N  0.27515348  0.51710820  0.87882028    -0.28900
C845        C  0.27432909  0.53660610  0.88078333    -0.04200
C846        C  0.29205220  0.54317164  0.88760186     0.04500
C847        C  0.30318995  0.52666795  0.88923154     0.02600
H848        H  0.26173692  0.54532668  0.87770357     0.07700
H849        H  0.31814026  0.52589223  0.89361926     0.06500
C850        C  0.40318159  0.34033650  0.88997493     0.02500
C851        C  0.41765484  0.34067131  0.87559933    -0.13600
C852        C  0.41748096  0.35516185  0.86112533     0.00000
C853        C  0.40284975  0.36925923  0.86134453    -0.12200
C854        C  0.38824464  0.36889072  0.87539796     0.02500
C855        C  0.38851522  0.35432200  0.88955385    -0.11600
H856        H  0.42897466  0.32986413  0.87573983     0.08100
H857        H  0.40250544  0.38022071  0.85011034     0.05600
H858        H  0.37759017  0.35421844  0.90077297     0.05500
N859        N  0.13712498  0.24100462  0.97291731    -0.27900
N860        N  0.14362038  0.24862405  0.95659781    -0.35800
C861        C  0.15106887  0.23456600  0.94544831     0.00400
C862        C  0.14897763  0.21709824  0.95493275     0.06500
C863        C  0.13991070  0.22165887  0.97228264    -0.06600
H864        H  0.15636172  0.23672732  0.93086544     0.07100
H865        H  0.13528155  0.21162689  0.98337344     0.08300
Cu866      Cu  0.13894854  0.27692113  0.94798721     0.44200
Cu867      Cu  0.12409403  0.25774628  0.99462524     0.42000
Cu868      Cu  0.10483786  0.30330261  0.97607815     0.43900
N869        N  0.12784492  0.30335794  0.93937469    -0.35300
N870        N  0.11457807  0.31275972  0.94934002    -0.29500
C871        C  0.10987631  0.32908590  0.93981220    -0.05600
C872        C  0.12075993  0.33001947  0.92298606     0.06600
C873        C  0.13198901  0.31340720  0.92324110     0.00400
H874        H  0.09960199  0.33965827  0.94500698     0.08000
H875        H  0.14224901  0.30876392  0.91240618     0.07100
N876        N  0.10293379  0.29470990  0.00477301    -0.36700
N877        N  0.11108422  0.27896294  0.01202062    -0.28900
C878        C  0.11007556  0.27984602  0.03154702    -0.04200
C879        C  0.10046615  0.29673474  0.03669009     0.04500
C880        C  0.09616216  0.30568905  0.01932002     0.02600
H881        H  0.11630038  0.26926742  0.04127686     0.07700
H882        H  0.08985783  0.31989965  0.01744201     0.06500
C883        C  0.13778722  0.41608296  0.84758873     0.02500
C884        C  0.13728810  0.40130550  0.86155223    -0.13600
C885        C  0.12057628  0.39042617  0.86473319     0.00000
C886        C  0.10410132  0.39446630  0.85371206    -0.12200
C887        C  0.10422324  0.40902062  0.83949512     0.02500
C888        C  0.12114707  0.41993645  0.83644498    -0.11600
H889        H  0.14996668  0.39855564  0.87032013     0.08100
H890        H  0.09118627  0.38591557  0.85583766     0.05600
H891        H  0.12137306  0.43121398  0.82554541     0.05500
N892        N  0.25843466  0.47662883  0.14623197    -0.27900
N893        N  0.25121280  0.45912704  0.14900094    -0.35800
C894        C  0.26528094  0.44703303  0.15463879     0.00400
C895        C  0.28250018  0.45708167  0.15541267     0.06500
C896        C  0.27758907  0.47589241  0.14990713    -0.06600
H897        H  0.26320608  0.43168456  0.15689319     0.07100
H898        H  0.28728839  0.48801789  0.14823153     0.08300
Cu899      Cu  0.22330837  0.45066875  0.14272025     0.44200
Cu900      Cu  0.24146364  0.50012939  0.13637920     0.42000
Cu901      Cu  0.19366847  0.48473320  0.11913649     0.43900
N902        N  0.19595466  0.44377083  0.13302652    -0.35300
N903        N  0.18474801  0.45655158  0.12434623    -0.29500
C904        C  0.16781727  0.44812159  0.11999275    -0.05600
C905        C  0.16850712  0.42897989  0.12603851     0.06600
C906        C  0.18662697  0.42675765  0.13420982     0.00400
H907        H  0.15599409  0.45534616  0.11275828     0.08000
H908        H  0.19252266  0.41383023  0.14079366     0.07100
N909        N  0.20379405  0.51296521  0.11775620    -0.36700
N910        N  0.22041999  0.51913403  0.12486628    -0.28900
C911        C  0.22087539  0.53867124  0.12331014    -0.04200
C912        C  0.20391342  0.54492177  0.11446966     0.04500
C913        C  0.19358071  0.52814158  0.11118548     0.02600
H914        H  0.23259849  0.54767667  0.12833739     0.07700
H915        H  0.17916001  0.52709827  0.10531419     0.06500
C916        C  0.07933454  0.35704169  0.13448086     0.02500
C917        C  0.07986576  0.34229025  0.12038900    -0.13600
C918        C  0.09475545  0.34185960  0.10649307     0.00000
C919        C  0.10924476  0.35605080  0.10713414    -0.12200
C920        C  0.10865332  0.37095519  0.12092344     0.02500
C921        C  0.09354922  0.37145419  0.13437099    -0.11600
H922        H  0.06885586  0.33118470  0.12030978     0.08100
H923        H  0.12068608  0.35586894  0.09645258     0.05600
H924        H  0.09333769  0.38263103  0.14539943     0.05500
N925        N  0.35851924  0.24292955  0.02683834    -0.27900
N926        N  0.35161343  0.25018085  0.04317829    -0.35800
C927        C  0.34578585  0.23568715  0.05473066     0.00400
C928        C  0.34927418  0.21825771  0.04554303     0.06500
C929        C  0.35747746  0.22339331  0.02785981    -0.06600
H930        H  0.34036828  0.23770151  0.06928703     0.07100
H931        H  0.36256997  0.21364461  0.01671244     0.08300
Cu932      Cu  0.35270239  0.27905123  0.05124520     0.44200
Cu933      Cu  0.36973889  0.26050149  0.00447509     0.42000
Cu934      Cu  0.38057391  0.30964082  0.02125980     0.43900
N935        N  0.35993244  0.30699088  0.05935344    -0.35300
N936        N  0.37093138  0.31814991  0.04848391    -0.29500
C937        C  0.37454648  0.33470783  0.05808821    -0.05600
C938        C  0.36533727  0.33396602  0.07592544     0.06600
C939        C  0.35614316  0.31614819  0.07614320     0.00400
H940        H  0.38336972  0.34634038  0.05252635     0.08000
H941        H  0.34798116  0.30992678  0.08794249     0.07100
N942        N  0.38603645  0.29975328  0.99332736    -0.36700
N943        N  0.38123608  0.28246771  0.98659159    -0.28900
C944        C  0.38492743  0.28207969  0.96733647    -0.04200
C945        C  0.39278593  0.29980405  0.96188991     0.04500
C946        C  0.39323506  0.31051427  0.97881299     0.02600
H947        H  0.38198382  0.26988594  0.95796044     0.07700
H948        H  0.39756693  0.32548272  0.98028661     0.06500
C949        C  0.38815047  0.40678689  0.16337395     0.02500
C950        C  0.38678152  0.39292595  0.14850445    -0.13600
C951        C  0.36953490  0.39022473  0.13822657     0.00000
C952        C  0.35353601  0.40174263  0.14283795    -0.12200
C953        C  0.35470240  0.41606510  0.15723197     0.02500
C954        C  0.37201242  0.41846053  0.16767320    -0.11600
H955        H  0.39914459  0.38391700  0.14518010     0.08100
H956        H  0.34024617  0.40001392  0.13475703     0.05600
H957        H  0.37296778  0.42940138  0.17887508     0.05500
N958        N  0.62914290  0.24326061  0.53126861    -0.27900
N959        N  0.63631464  0.25081916  0.54733808    -0.35800
C960        C  0.64277729  0.23660807  0.55890641     0.00400
C961        C  0.63936611  0.21901882  0.55004193     0.06500
C962        C  0.63057701  0.22376149  0.53251045    -0.06600
H963        H  0.64847820  0.23890199  0.57331923     0.07100
H964        H  0.62530817  0.21377494  0.52166476     0.08300
Cu965      Cu  0.63463551  0.27966377  0.55500279     0.44200
Cu966      Cu  0.61718453  0.26057848  0.50909832     0.42000
Cu967      Cu  0.60877031  0.31114589  0.52409000     0.43900
N968        N  0.62888727  0.30808158  0.56226953    -0.35300
N969        N  0.61951684  0.32000936  0.55066199    -0.29500
C970        C  0.61787895  0.33735730  0.55938569    -0.05600
C971        C  0.62638194  0.33612890  0.57752767     0.06600
C972        C  0.63317863  0.31732524  0.57884374     0.00400
H973        H  0.61048862  0.34971624  0.55324296     0.08000
H974        H  0.64063531  0.31078842  0.59096458     0.07100
N975        N  0.60162850  0.30005329  0.49712432    -0.36700
N976        N  0.60571093  0.28235574  0.49096869    -0.28900
C977        C  0.60189204  0.28148991  0.47177194    -0.04200
C978        C  0.59462366  0.29929482  0.46583150     0.04500
C979        C  0.59467405  0.31059055  0.48232140     0.02600
H980        H  0.60475227  0.26905683  0.46268606     0.07700
H981        H  0.59133621  0.32587230  0.48316714     0.06500
C982        C  0.64431282  0.42192211  0.65298343     0.02500
C983        C  0.62874110  0.42340382  0.66607234    -0.13600
C984        C  0.61296575  0.41060953  0.66445136     0.00000
C985        C  0.61311544  0.39630872  0.65001438    -0.12200
C986        C  0.62842164  0.39490198  0.63691196     0.02500
C987        C  0.64388239  0.40779213  0.63837916    -0.11600
H988        H  0.62883388  0.43442232  0.67723486     0.08100
H989        H  0.60099953  0.38649464  0.64868586     0.05600
H990        H  0.65583835  0.40658424  0.62834084     0.05500
N991        N  0.52422960  0.37401164  0.26488419    -0.27900
N992        N  0.54115749  0.36718629  0.25921452    -0.35800
C993        C  0.55105609  0.36089440  0.27471022     0.00400
C994        C  0.54018696  0.36404969  0.29116916     0.06500
C995        C  0.52324979  0.37254023  0.28442222    -0.06600
H996        H  0.56558795  0.35523998  0.27410005     0.07100
H997        H  0.51116710  0.37733453  0.29308202     0.08300
Cu998      Cu  0.55208818  0.36819304  0.23125725     0.44200
Cu999      Cu  0.50336978  0.38479454  0.24528964     0.42000
Cu1000     Cu  0.52152778  0.38659647  0.19532873     0.43900
N1001       N  0.56144351  0.37232504  0.20302088    -0.35300
N1002       N  0.54980039  0.37898114  0.18945188    -0.29500
C1003       C  0.55951219  0.38023610  0.17264124    -0.05600
C1004       C  0.57833828  0.37421731  0.17579118     0.06600
C1005       C  0.57901110  0.36934789  0.19530116     0.00400
H1006       H  0.55339090  0.38553993  0.15923442     0.08000
H1007       H  0.59129604  0.36392678  0.20329309     0.07100
N1008       N  0.49361915  0.39366967  0.20332082    -0.36700
N1009       N  0.48653983  0.39305883  0.22110233    -0.28900
C1010       C  0.46758935  0.39766187  0.22022230    -0.04200
C1011       C  0.46259951  0.40139931  0.20097318     0.04500
C1012       C  0.47963113  0.39867362  0.19086001     0.02600
H1013       H  0.45808142  0.39785977  0.23262539     0.07700
H1014       H  0.48173746  0.39949573  0.17536897     0.06500
C1015       C  0.66913992  0.38716544  0.10577832     0.02500
C1016       C  0.65469401  0.38653411  0.12001384    -0.13600
C1017       C  0.64028834  0.37230075  0.11948029     0.00000
C1018       C  0.64073630  0.35825772  0.10477891    -0.12200
C1019       C  0.65548650  0.35818058  0.09085767     0.02500
C1020       C  0.66959838  0.37280615  0.09127223    -0.11600
H1021       H  0.65411758  0.39774515  0.13099063     0.08100
H1022       H  0.62984395  0.34702696  0.10444965     0.05600
H1023       H  0.68077389  0.37308706  0.08032386     0.05500
N1024       N  0.71674215  0.51744401  0.37766470    -0.27900
N1025       N  0.70097378  0.51138893  0.38660190    -0.35800
C1026       C  0.69039789  0.52674871  0.39206955     0.00400
C1027       C  0.69958683  0.54345397  0.38613016     0.06500
C1028       C  0.71622757  0.53701407  0.37688902    -0.06600
H1029       H  0.67648078  0.52577007  0.39905367     0.07100
H1030       H  0.72711371  0.54590515  0.37008657     0.08300
Cu1031     Cu  0.69223882  0.48278197  0.38909303     0.44200
Cu1032     Cu  0.73822748  0.49840058  0.36717083     0.42000
Cu1033     Cu  0.72294699  0.44769937  0.36909751     0.43900
N1034       N  0.68392177  0.45411590  0.38607293    -0.35300
N1035       N  0.69551672  0.44094306  0.37861858    -0.29500
C1036       C  0.68604567  0.42402472  0.37725544    -0.05600
C1037       C  0.66740964  0.42669937  0.38401723     0.06600
C1038       C  0.66663380  0.44601836  0.38951164     0.00400
H1039       H  0.69205253  0.41100462  0.37097844     0.08000
H1040       H  0.65432459  0.45377049  0.39518740     0.07100
N1041       N  0.74992367  0.45670473  0.36012344    -0.36700
N1042       N  0.75611517  0.47480189  0.35953778    -0.28900
C1043       C  0.77484818  0.47460638  0.35402041    -0.04200
C1044       C  0.78050464  0.45547766  0.35081560     0.04500
C1045       C  0.76420619  0.44471769  0.35491155     0.02600
H1046       H  0.78373673  0.48738502  0.35267022     0.07700
H1047       H  0.76290681  0.42912057  0.35489959     0.06500
C1048       C  0.58983588  0.34198998  0.39493199     0.02500
C1049       C  0.57622524  0.34253379  0.37974998    -0.13600
C1050       C  0.57717566  0.35720715  0.36554723     0.00000
C1051       C  0.59152951  0.37147515  0.36693021    -0.12200
C1052       C  0.60537682  0.37076835  0.38172838     0.02500
C1053       C  0.60448866  0.35595937  0.39555665    -0.11600
H1054       H  0.56515104  0.33153053  0.37886636     0.08100
H1055       H  0.59248072  0.38262421  0.35591632     0.05600
H1056       H  0.61501597  0.35557708  0.40717034     0.05500
N1057       N  0.98775456  0.90134128  0.72923867    -0.27900
N1058       N  0.99590576  0.90542990  0.71244394    -0.35800
C1059       C  0.98255309  0.91229220  0.70017793     0.00400
C1060       C  0.96482781  0.91252756  0.70943665     0.06500
C1061       C  0.96876433  0.90547511  0.72796326    -0.06600
H1062       H  0.98552617  0.91566518  0.68519050     0.07100
H1063       H  0.95850617  0.90276634  0.73942347     0.08300
Cu1064     Cu  0.02388416  0.89844614  0.70503060     0.44200
Cu1065     Cu  0.00322171  0.88866473  0.75210746     0.42000
Cu1066     Cu  0.04865916  0.86609758  0.73626050     0.43900
N1067       N  0.04978457  0.88570276  0.69763995    -0.35300
N1068       N  0.05879597  0.87320055  0.70890856    -0.29500
C1069       C  0.07496353  0.86722154  0.69995820    -0.05600
C1070       C  0.07617483  0.87641780  0.68208487     0.06600
C1071       C  0.05985288  0.88801107  0.68120038     0.00400
H1072       H  0.08516622  0.85716141  0.70620905     0.08000
H1073       H  0.05541229  0.89738208  0.66947247     0.07100
N1074       N  0.03866769  0.86603927  0.76458326    -0.36700
N1075       N  0.02301698  0.87512804  0.77073552    -0.28900
C1076       C  0.02292942  0.87481788  0.79030017    -0.04200
C1077       C  0.03909608  0.86477577  0.79665756     0.04500
C1078       C  0.04862311  0.85941996  0.77991611     0.02600
H1079       H  0.01223468  0.88189686  0.79923527     0.07700
H1080       H  0.06258928  0.85250708  0.77897335     0.06500
C1081       C  0.15212027  0.85354211  0.59782495     0.02500
C1082       C  0.16512501  0.86909492  0.59583951    -0.13600
C1083       C  0.16381408  0.88515808  0.60837063     0.00000
C1084       C  0.14939949  0.88563648  0.62257202    -0.12200
C1085       C  0.13649209  0.87024324  0.62463598     0.02500
C1086       C  0.13799998  0.85416801  0.61237363    -0.11600
H1087       H  0.17599083  0.86878266  0.58458523     0.08100
H1088       H  0.14809731  0.89816841  0.63195066     0.05600
H1089       H  0.12790539  0.84229594  0.61387665     0.05500
N1090       N  0.47005055  0.13005806  0.26551092    -0.27900
N1091       N  0.45262766  0.13474541  0.25918436    -0.35800
C1092       C  0.44179365  0.14070168  0.27412745     0.00400
C1093       C  0.45258178  0.13970492  0.29093525     0.06500
C1094       C  0.47046747  0.13274169  0.28494729    -0.06600
H1095       H  0.42680386  0.14482423  0.27285857     0.07100
H1096       H  0.48284098  0.12984171  0.29404004     0.08300
Cu1097     Cu  0.44240116  0.13217689  0.23105934     0.44200
Cu1098     Cu  0.49232762  0.12026560  0.24700122     0.42000
Cu1099     Cu  0.47450652  0.11440235  0.19718797     0.43900
N1100       N  0.43427402  0.12800176  0.20246191    -0.35300
N1101       N  0.44667376  0.12156748  0.18951964    -0.29500
C1102       C  0.43797501  0.12048551  0.17213479    -0.05600
C1103       C  0.41899061  0.12634531  0.17428625     0.06600
C1104       C  0.41716353  0.13097980  0.19377224     0.00400
H1105       H  0.44487390  0.11544756  0.15901831     0.08000
H1106       H  0.40442474  0.13630182  0.20106352     0.07100
N1107       N  0.50246150  0.10904540  0.20583785    -0.36700
N1108       N  0.50968688  0.11138966  0.22341618    -0.28900
C1109       C  0.52888630  0.10785822  0.22254399    -0.04200
C1110       C  0.53378699  0.10299007  0.20350876     0.04500
C1111       C  0.51649109  0.10395408  0.19356267     0.02600
H1112       H  0.53859463  0.10917208  0.23473610     0.07700
H1113       H  0.51414795  0.10199635  0.17821211     0.06500
C1114       C  0.33027382  0.11685735  0.10100186     0.02500
C1115       C  0.32990668  0.13221126  0.08759091    -0.13600
C1116       C  0.34446958  0.14641502  0.08794257     0.00000
C1117       C  0.35937215  0.14502869  0.10167374    -0.12200
C1118       C  0.35959450  0.13000764  0.11538778     0.02500
C1119       C  0.34496140  0.11603329  0.11493610    -0.11600
H1120       H  0.31854654  0.13297278  0.07684166     0.08100
H1121       H  0.37043826  0.15608059  0.10210097     0.05600
H1122       H  0.34531700  0.10406615  0.12509936     0.05500
N1123       N  0.23733886  0.02482278  0.35651069    -0.27900
N1124       N  0.24419216  0.04255602  0.35427378    -0.35800
C1125       C  0.23008942  0.05434240  0.34812401     0.00400
C1126       C  0.21320215  0.04387902  0.34645743     0.06500
C1127       C  0.21832766  0.02513124  0.35201323    -0.06600
H1128       H  0.23186776  0.06975609  0.34604781     0.07100
H1129       H  0.20887106  0.01273974  0.35302955     0.08300
Cu1130     Cu  0.27157373  0.05181345  0.36158156     0.44200
Cu1131     Cu  0.25475005  0.00154646  0.36635775     0.42000
Cu1132     Cu  0.30211197  0.01819893  0.38396125     0.43900
N1133       N  0.29871674  0.05940686  0.37129822    -0.35300
N1134       N  0.31034133  0.04669267  0.37948831    -0.29500
C1135       C  0.32724843  0.05532136  0.38350357    -0.05600
C1136       C  0.32612391  0.07452895  0.37772105     0.06600
C1137       C  0.30774363  0.07658791  0.37010410     0.00400
H1138       H  0.33943997  0.04811627  0.39011173     0.08000
H1139       H  0.30156712  0.08944514  0.36364183     0.07100
N1140       N  0.29288279  0.98966675  0.38479864    -0.36700
N1141       N  0.27648974  0.98302402  0.37755633    -0.28900
C1142       C  0.27679397  0.96344353  0.37874894    -0.04200
C1143       C  0.29397059  0.95770338  0.38754019     0.04500
C1144       C  0.30365113  0.97478073  0.39112475     0.02600
H1145       H  0.26546251  0.95406621  0.37349892     0.07700
H1146       H  0.31802908  0.97624357  0.39701326     0.06500
C1147       C  0.40242005  0.15961945  0.39516966     0.02500
C1148       C  0.38755384  0.14585699  0.39477290    -0.13600
C1149       C  0.38629894  0.13236809  0.37966170     0.00000
C1150       C  0.39989896  0.13289003  0.36467368    -0.12200
C1151       C  0.41452534  0.14689504  0.36450004     0.02500
C1152       C  0.41587130  0.16024595  0.37988497    -0.11600
H1153       H  0.37724981  0.14530363  0.40656107     0.08100
H1154       H  0.39876899  0.12269985  0.35277666     0.05600
H1155       H  0.42721839  0.17099962  0.37994889     0.05500
N1156       N  0.23877127  0.52417132  0.64313576    -0.27900
N1157       N  0.24643235  0.54130218  0.64683026    -0.35800
C1158       C  0.23276733  0.55326133  0.65361489     0.00400
C1159       C  0.21539844  0.54344135  0.65431606     0.06500
C1160       C  0.21978534  0.52496258  0.64745943    -0.06600
H1161       H  0.23528960  0.56832462  0.65700949     0.07100
H1162       H  0.20988338  0.51305004  0.64548038     0.08300
Cu1163     Cu  0.27459871  0.54923785  0.64111521     0.44200
Cu1164     Cu  0.25494397  0.50100507  0.63166515     0.42000
Cu1165     Cu  0.30217771  0.51691355  0.61331364     0.43900
N1166       N  0.30194613  0.55610512  0.63143255    -0.35300
N1167       N  0.31209544  0.54425775  0.62045639    -0.29500
C1168       C  0.32887845  0.55281686  0.61580384    -0.05600
C1169       C  0.32932038  0.57099918  0.62434627     0.06600
C1170       C  0.31195554  0.57252274  0.63416828     0.00400
H1171       H  0.33997223  0.54619341  0.60701677     0.08000
H1172       H  0.30673812  0.58480645  0.64235108     0.07100
N1173       N  0.29205592  0.48876232  0.61185122    -0.36700
N1174       N  0.27567902  0.48239403  0.61932165    -0.28900
C1175       C  0.27549017  0.46285476  0.61796610    -0.04200
C1176       C  0.29239305  0.45682616  0.60893125     0.04500
C1177       C  0.30239806  0.47370814  0.60529936     0.02600
H1178       H  0.26410671  0.45370092  0.62347778     0.07700
H1179       H  0.31679393  0.47491069  0.59941414     0.06500
C1180       C  0.41375996  0.64886271  0.63402743     0.02500
C1181       C  0.40004605  0.63400640  0.63472811    -0.13600
C1182       C  0.38826416  0.63000501  0.61873859     0.00000
C1183       C  0.39040748  0.64099255  0.60177400    -0.12200
C1184       C  0.40368192  0.65635507  0.60094387     0.02500
C1185       C  0.41536560  0.66030937  0.61720737    -0.11600
H1186       H  0.39863480  0.62542047  0.64780525     0.08100
H1187       H  0.38126563  0.63802216  0.58938461     0.05600
H1188       H  0.42574814  0.67199323  0.61668913     0.05500
N1189       N  0.38695230  0.21868962  0.49224022    -0.27900
N1190       N  0.39204924  0.20175905  0.49958561    -0.35800
C1191       C  0.39840523  0.19020075  0.48532452     0.00400
C1192       C  0.39724701  0.20007458  0.46790220     0.06500
C1193       C  0.38983481  0.21816369  0.47287153    -0.06600
H1194       H  0.40253813  0.17525008  0.48744313     0.07100
H1195       H  0.38636736  0.22990416  0.46309964     0.08300
Cu1196     Cu  0.38791749  0.19337590  0.52807558     0.44200
Cu1197     Cu  0.37520892  0.24093640  0.50940088     0.42000
Cu1198     Cu  0.35811224  0.22365738  0.55671879     0.43900
N1199       N  0.37879810  0.18564898  0.55554126    -0.35300
N1200       N  0.36707184  0.19655802  0.56591072    -0.29500
C1201       C  0.36307487  0.18744147  0.58265298    -0.05600
C1202       C  0.37286167  0.16992714  0.58285516     0.06600
C1203       C  0.38269641  0.16932127  0.56540046     0.00400
H1204       H  0.35393143  0.19327397  0.59392073     0.08000
H1205       H  0.39168949  0.15770331  0.56003622     0.07100
N1206       N  0.35543697  0.25193990  0.54709011    -0.36700
N1207       N  0.36259604  0.25872058  0.53066266    -0.28900
C1208       C  0.36080889  0.27819737  0.53071923    -0.04200
C1209       C  0.35178231  0.28378359  0.54780448     0.04500
C1210       C  0.34860326  0.26671617  0.55771919     0.02600
H1211       H  0.36611056  0.28762959  0.51940940     0.07700
H1212       H  0.34296556  0.26525262  0.57225774     0.06500
C1213       C  0.35266290  0.08479366  0.65826019     0.02500
C1214       C  0.36875502  0.08106418  0.67025378    -0.13600
C1215       C  0.38588411  0.09182662  0.66778995     0.00000
C1216       C  0.38674726  0.10612120  0.65332919    -0.12200
C1217       C  0.37081999  0.11005089  0.64150138     0.02500
C1218       C  0.35396370  0.09924999  0.64399710    -0.11600
H1219       H  0.36792252  0.07007275  0.68141248     0.08100
H1220       H  0.39978219  0.11458796  0.65165078     0.05600
H1221       H  0.34173530  0.10198624  0.63459795     0.05500
N1222       N  0.47662484  0.37323717  0.76430706    -0.27900
N1223       N  0.45956852  0.36731871  0.75808615    -0.35800
C1224       C  0.44905344  0.36107223  0.77316214     0.00400
C1225       C  0.45966545  0.36331982  0.78992245     0.06500
C1226       C  0.47707853  0.37127152  0.78383377    -0.06600
H1227       H  0.43434232  0.35601420  0.77208560     0.07100
H1228       H  0.48911693  0.37533361  0.79292444     0.08300
Cu1229     Cu  0.44972416  0.36927633  0.72983155     0.44200
Cu1230     Cu  0.49815620  0.38345617  0.74515572     0.42000
Cu1231     Cu  0.48119471  0.38737501  0.69434762     0.43900
N1232       N  0.44130336  0.37278965  0.70127937    -0.35300
N1233       N  0.45315060  0.37919080  0.68779171    -0.29500
C1234       C  0.44373855  0.37977598  0.67072475    -0.05600
C1235       C  0.42492534  0.37363598  0.67370550     0.06600
C1236       C  0.42396371  0.36934909  0.69330459     0.00400
H1237       H  0.44999176  0.38478699  0.65728011     0.08000
H1238       H  0.41160883  0.36404647  0.70122627     0.07100
N1239       N  0.50884607  0.39417514  0.70369010    -0.36700
N1240       N  0.51551389  0.39240770  0.72159211    -0.28900
C1241       C  0.53447524  0.39702186  0.72150664    -0.04200
C1242       C  0.53983977  0.40216405  0.70273669     0.04500
C1243       C  0.52310878  0.40011840  0.69199372     0.02600
H1244       H  0.54369305  0.39656771  0.73414173     0.07700
H1245       H  0.52148496  0.40208262  0.67653225     0.06500
C1246       C  0.33348519  0.38473562  0.60400314     0.02500
C1247       C  0.34829107  0.38483317  0.61788484    -0.13600
C1248       C  0.36278410  0.37064100  0.61765293     0.00000
C1249       C  0.36214172  0.35603507  0.60356060    -0.12200
C1250       C  0.34711358  0.35531624  0.58994603     0.02500
C1251       C  0.33281177  0.36980697  0.59011616    -0.11600
H1252       H  0.34895767  0.39646412  0.62840889     0.08100
H1253       H  0.37309651  0.34483302  0.60351944     0.05600
H1254       H  0.32139259  0.36959471  0.57940472     0.05500
N1255       N  0.13367016  0.75749896  0.53760332    -0.27900
N1256       N  0.14008111  0.74988371  0.55397255    -0.35800
C1257       C  0.14679369  0.76399724  0.56551332     0.00400
C1258       C  0.14446376  0.78160291  0.55625132     0.06500
C1259       C  0.13597943  0.77692187  0.53854344    -0.06600
H1260       H  0.15205623  0.76163495  0.58008152     0.07100
H1261       H  0.13155954  0.78691081  0.52731330     0.08300
Cu1262     Cu  0.13731151  0.72110232  0.56174035     0.44200
Cu1263     Cu  0.12153378  0.74038207  0.51538666     0.42000
Cu1264     Cu  0.10694541  0.69206606  0.53236229     0.43900
N1265       N  0.12918053  0.69339036  0.56955708    -0.35300
N1266       N  0.11726491  0.68280060  0.55908543    -0.29500
C1267       C  0.11393303  0.66601268  0.56841430    -0.05600
C1268       C  0.12431701  0.66604716  0.58562888     0.06600
C1269       C  0.13382842  0.68368165  0.58577858     0.00400
H1270       H  0.10472228  0.65461703  0.56298356     0.08000
H1271       H  0.14303074  0.68934272  0.59708612     0.07100
N1272       N  0.10329201  0.70193752  0.50413847    -0.36700
N1273       N  0.10964034  0.71871298  0.49740396    -0.28900
C1274       C  0.10772710  0.71866091  0.47789123    -0.04200
C1275       C  0.09943484  0.70121506  0.47222479     0.04500
C1276       C  0.09681592  0.69111902  0.48931353     0.02600
H1277       H  0.11244493  0.73024000  0.46847549     0.07700
H1278       H  0.09184309  0.67634875  0.49073476     0.06500
C1279       C  0.10954328  0.59023032  0.67234478     0.02500
C1280       C  0.10916307  0.60435563  0.65767570    -0.13600
C1281       C  0.12549899  0.60799962  0.64629016     0.00000
C1282       C  0.14226016  0.59714775  0.64953012    -0.12200
C1283       C  0.14276210  0.58255548  0.66365528     0.02500
C1284       C  0.12639561  0.57918765  0.67524361    -0.11600
H1285       H  0.09618022  0.61279719  0.65538674     0.08100
H1286       H  0.15483298  0.59958502  0.64054159     0.05600
H1287       H  0.12670656  0.56799760  0.68623610     0.05500
N1288       N  0.86252783  0.76407601  0.03160917    -0.27900
N1289       N  0.85854073  0.75708982  0.04898965    -0.35800
C1290       C  0.85219071  0.77140974  0.06044887     0.00400
C1291       C  0.85226856  0.78853795  0.05009022     0.06500
C1292       C  0.85901984  0.78335584  0.03178807    -0.06600
H1293       H  0.84882226  0.76959760  0.07564052     0.07100
H1294       H  0.86152116  0.79292966  0.01964813     0.08300
Cu1295     Cu  0.86421781  0.72920693  0.05817870     0.44200
Cu1296     Cu  0.87337883  0.74639661  0.00920528     0.42000
Cu1297     Cu  0.88956580  0.69833020  0.02639518     0.43900
N1298       N  0.87344389  0.70199543  0.06644244    -0.35300
N1299       N  0.88281579  0.69031121  0.05460895    -0.29500
C1300       C  0.88620261  0.67344235  0.06378267    -0.05600
C1301       C  0.87873633  0.67468669  0.08239937     0.06600
C1302       C  0.87082497  0.69307066  0.08354468     0.00400
H1303       H  0.89350168  0.66118875  0.05734405     0.08000
H1304       H  0.86322513  0.69933784  0.09570540     0.07100
N1305       N  0.89176922  0.70795053  0.99793687    -0.36700
N1306       N  0.88503880  0.72462096  0.99125361    -0.28900
C1307       C  0.88680466  0.72463987  0.97174148    -0.04200
C1308       C  0.89539895  0.70736759  0.96601532     0.04500
C1309       C  0.89832759  0.69726733  0.98305726     0.02600
H1310       H  0.88193592  0.73622263  0.96238664     0.07700
H1311       H  0.90379053  0.68265647  0.98444825     0.06500
C1312       C  0.89031626  0.59882442  0.16914500     0.02500
C1313       C  0.87434973  0.58624280  0.16989868    -0.13600
C1314       C  0.85910648  0.58846586  0.15656627     0.00000
C1315       C  0.86024897  0.60288464  0.14226720    -0.12200
C1316       C  0.87607339  0.61538751  0.14143044     0.02500
C1317       C  0.89094633  0.61343187  0.15501036    -0.11600
H1318       H  0.87368503  0.57504450  0.18086463     0.08100
H1319       H  0.84857819  0.60460497  0.13194847     0.05600
H1320       H  0.90327930  0.62302788  0.15430746     0.05500
N1321       N  0.72499597  0.48627305  0.11899447    -0.27900
N1322       N  0.70822004  0.49195563  0.11180447    -0.35800
C1323       C  0.69816159  0.47643224  0.10598127     0.00400
C1324       C  0.70877651  0.45998978  0.10989108     0.06500
C1325       C  0.72571169  0.46671571  0.11830129    -0.06600
H1326       H  0.68364986  0.47702713  0.10026601     0.07100
H1327       H  0.73756226  0.45803865  0.12364983     0.08300
Cu1328     Cu  0.69756767  0.51994028  0.11217240     0.44200
Cu1329     Cu  0.74588973  0.50581930  0.12937418     0.42000
Cu1330     Cu  0.72811780  0.55596660  0.13020331     0.43900
N1331       N  0.68826971  0.54814145  0.11598181    -0.35300
N1332       N  0.69990556  0.56178625  0.12241209    -0.29500
C1333       C  0.69015371  0.57858109  0.12348643    -0.05600
C1334       C  0.67132391  0.57529794  0.11761095     0.06600
C1335       C  0.67066804  0.55576777  0.11300378     0.00400
H1336       H  0.69622819  0.59205226  0.12862057     0.08000
H1337       H  0.65837281  0.54769466  0.10777604     0.07100
N1338       N  0.75574621  0.54768656  0.13795753    -0.36700
N1339       N  0.76269113  0.52984401  0.13760640    -0.28900
C1340       C  0.78144879  0.53047401  0.14293548    -0.04200
C1341       C  0.78637785  0.54960337  0.14699852     0.04500
C1342       C  0.76962085  0.55994834  0.14358699     0.02600
H1343       H  0.79080829  0.51796659  0.14367727     0.07700
H1344       H  0.76766840  0.57545164  0.14449796     0.06500
C1345       C  0.59443509  0.66018685  0.10124865     0.02500
C1346       C  0.60918244  0.64627948  0.10158130    -0.13600
C1347       C  0.60921979  0.63135713  0.11537494     0.00000
C1348       C  0.59432825  0.63054035  0.12909464    -0.12200
C1349       C  0.57971924  0.64463740  0.12942929     0.02500
C1350       C  0.57974070  0.65942516  0.11532327    -0.11600
H1351       H  0.62038997  0.64677245  0.09066077     0.08100
H1352       H  0.59458446  0.61939190  0.14014519     0.05600
H1353       H  0.56846338  0.67028260  0.11534004     0.05500
N1354       N  0.48120422  0.60902305  0.26820537    -0.27900
N1355       N  0.48746820  0.60910960  0.28631616    -0.35800
C1356       C  0.47325408  0.60354157  0.29817507     0.00400
C1357       C  0.45692039  0.59977163  0.28733100     0.06500
C1358       C  0.46247087  0.60351680  0.26827419    -0.06600
H1359       H  0.47458376  0.60318500  0.31378328     0.07100
H1360       H  0.45349530  0.60262133  0.25548590     0.08300
Cu1361     Cu  0.51431411  0.61807333  0.29573488     0.44200
Cu1362     Cu  0.49894624  0.61740612  0.24484549     0.42000
Cu1363     Cu  0.54558215  0.63763973  0.26134064     0.43900
N1364       N  0.54177795  0.62704762  0.30309087    -0.35300
N1365       N  0.55375416  0.63405042  0.29003379    -0.29500
C1366       C  0.57099803  0.63713525  0.29840876    -0.05600
C1367       C  0.56973635  0.63198802  0.31780162     0.06600
C1368       C  0.55091565  0.62573896  0.32024331     0.00400
H1369       H  0.58355368  0.64253452  0.29087992     0.08000
H1370       H  0.54455056  0.61992263  0.33330530     0.07100
N1371       N  0.53637602  0.63692193  0.23273727    -0.36700
N1372       N  0.52040807  0.62860152  0.22631365    -0.28900
C1373       C  0.52067182  0.62898618  0.20671606    -0.04200
C1374       C  0.53733218  0.63839255  0.20069286     0.04500
C1375       C  0.54681575  0.64318291  0.21761187     0.02600
H1376       H  0.50961826  0.62284414  0.19753309     0.07700
H1377       H  0.56084770  0.64988487  0.21883522     0.06500
C1378       C  0.64634963  0.64638618  0.40337736     0.02500
C1379       C  0.63161456  0.64631633  0.38942789    -0.13600
C1380       C  0.63074309  0.63183043  0.37519423     0.00000
C1381       C  0.64473255  0.61713765  0.37513411    -0.12200
C1382       C  0.65923558  0.61650902  0.38934040     0.02500
C1383       C  0.66008436  0.63130884  0.40343301    -0.11600
H1384       H  0.62110161  0.65793725  0.38932253     0.08100
H1385       H  0.64387036  0.60567000  0.36444724     0.05600
H1386       H  0.67133574  0.63110573  0.41431979     0.05500
N1387       N  0.22068048  0.48225669  0.38089402    -0.27900
N1388       N  0.20475340  0.48874880  0.38923278    -0.35800
C1389       C  0.19427359  0.47370233  0.39557316     0.00400
C1390       C  0.20369497  0.45675454  0.39078510     0.06500
C1391       C  0.22038452  0.46269791  0.38137436    -0.06600
H1392       H  0.18010314  0.47499349  0.40197317     0.07100
H1393       H  0.23125051  0.45348152  0.37494769     0.08300
Cu1394     Cu  0.19519594  0.51715336  0.38880647     0.44200
Cu1395     Cu  0.24155249  0.50059741  0.36849608     0.42000
Cu1396     Cu  0.22289230  0.54969893  0.36165754     0.43900
N1397       N  0.18586016  0.54503958  0.38301855    -0.35300
N1398       N  0.19637765  0.55733265  0.37294044    -0.29500
C1399       C  0.18693459  0.57429159  0.37156475    -0.05600
C1400       C  0.16944357  0.57247584  0.38104956     0.06600
C1401       C  0.16922395  0.55367896  0.38806616     0.00400
H1402       H  0.19225882  0.58686952  0.36392703     0.08000
H1403       H  0.15790382  0.54683477  0.39636185     0.07100
N1404       N  0.25041592  0.54102146  0.35423651    -0.36700
N1405       N  0.25792881  0.52367352  0.35725830    -0.28900
C1406       C  0.27686208  0.52434477  0.35261917    -0.04200
C1407       C  0.28126462  0.54295639  0.34618490     0.04500
C1408       C  0.26404644  0.55295459  0.34746593     0.17000
H1409       H  0.28674464  0.51232564  0.35419018     0.07700
H1410       H  0.26172386  0.56819896  0.34475819     0.06500
C1411       C  0.08139833  0.64512428  0.37056033     0.02500
C1412       C  0.08088849  0.65932292  0.38528540    -0.13600
C1413       C  0.09476362  0.65910798  0.40029129     0.00000
C1414       C  0.10926829  0.64489056  0.40013977    -0.12200
C1415       C  0.10962431  0.63052521  0.38578620     0.02500
C1416       C  0.09553949  0.63062232  0.37123953    -0.11600
H1417       H  0.06989671  0.67046445  0.38501336     0.08100
H1418       H  0.11999060  0.64466705  0.41157152     0.05600
H1419       H  0.09610408  0.61982616  0.35984635     0.05500
N1420       N  0.38997106  0.71801521  0.50432243    -0.27900
N1421       N  0.39581366  0.70174437  0.49610992    -0.35800
C1422       C  0.40186497  0.68936233  0.50979166     0.00400
C1423       C  0.39972595  0.69786400  0.52785573     0.06500
C1424       C  0.39216982  0.71618696  0.52374003    -0.06600
H1425       H  0.40640156  0.67473619  0.50663722     0.07100
H1426       H  0.38780185  0.72706920  0.53410945     0.08300
Cu1427     Cu  0.39206038  0.69438625  0.46730412     0.44200
Cu1428     Cu  0.37767728  0.74086060  0.48798525     0.42000
Cu1429     Cu  0.35883931  0.72307812  0.44153044     0.43900
N1430       N  0.38060185  0.68567797  0.44103746    -0.35300
N1431       N  0.36729421  0.69587231  0.43193457    -0.29500
C1432       C  0.36175553  0.68620901  0.41594117    -0.05600
C1433       C  0.37220548  0.66910117  0.41486584     0.06600
C1434       C  0.38403523  0.66930251  0.43106757     0.00400
H1435       H  0.35125552  0.69149236  0.40562325     0.08000
H1436       H  0.39416301  0.65823410  0.43548908     0.07100
N1437       N  0.35740838  0.75177982  0.45041713    -0.36700
N1438       N  0.36498129  0.75878361  0.46657385    -0.28900
C1439       C  0.36369457  0.77833775  0.46595882    -0.04200
C1440       C  0.35468488  0.78379119  0.44872223     0.04500
C1441       C  0.35094089  0.76646007  0.43940170     0.02600
H1442       H  0.36929356  0.78790182  0.47701552     0.07700
H1443       H  0.34503131  0.76465278  0.42500847     0.06500
C1444       C  0.38425405  0.59471373  0.32674191     0.02500
C1445       C  0.38453646  0.60885410  0.34137750    -0.13600
C1446       C  0.36893897  0.61112933  0.35411233     0.00000
C1447       C  0.35286712  0.59899720  0.35200768    -0.12200
C1448       C  0.35240138  0.58463406  0.33761000     0.02500
C1449       C  0.36809026  0.58257198  0.32484392    -0.11600
H1450       H  0.39703711  0.61814015  0.34280498     0.08100
H1451       H  0.34082944  0.60035364  0.36191586     0.05600
H1452       H  0.36787792  0.57141064  0.31382036     0.05500
N1453       N  0.13289630  0.25995531  0.46958656    -0.27900
N1454       N  0.14032088  0.25268921  0.45349035    -0.35800
C1455       C  0.14670612  0.26714453  0.44219295     0.00400
C1456       C  0.14296622  0.28455855  0.45127923     0.06500
C1457       C  0.13405650  0.27947571  0.46861540    -0.06600
H1458       H  0.15265621  0.26513535  0.42784581     0.07100
H1459       H  0.12862208  0.28925157  0.47957280     0.08300
Cu1460     Cu  0.13927082  0.22387861  0.44547553     0.44200
Cu1461     Cu  0.12131664  0.24239683  0.49175164     0.42000
Cu1462     Cu  0.11606594  0.19135158  0.47711921     0.43900
N1463       N  0.13388203  0.19544178  0.43793435    -0.35300
N1464       N  0.12553194  0.18306894  0.44982343    -0.29500
C1465       C  0.12349325  0.16595018  0.44071210    -0.05600
C1466       C  0.13064741  0.16780446  0.42204603     0.06600
C1467       C  0.13708782  0.18672753  0.42082765     0.00400
H1468       H  0.11655270  0.15338064  0.44691216     0.08000
H1469       H  0.14339555  0.19375417  0.40834691     0.07100
N1470       N  0.10839160  0.20223046  0.50408411    -0.36700
N1471       N  0.11092285  0.22026133  0.51008537    -0.28900
C1472       C  0.10591877  0.22123106  0.52902622    -0.04200
C1473       C  0.09958863  0.20305212  0.53495778     0.04500
C1474       C  0.10139851  0.19152301  0.51869823     0.02600
H1475       H  0.10690435  0.23413862  0.53784431     0.07700
H1476       H  0.09865753  0.17613527  0.51777435     0.06500
C1477       C  0.14136272  0.08491521  0.34184853     0.02500
C1478       C  0.12516712  0.08470467  0.32945847    -0.13600
C1479       C  0.10983747  0.09778412  0.33260979     0.00000
C1480       C  0.11105273  0.11114055  0.34790288    -0.12200
C1481       C  0.12710005  0.11145136  0.36022877     0.02500
C1482       C  0.14209465  0.09821892  0.35720899    -0.11600
H1483       H  0.12443850  0.07441870  0.31763735     0.08100
H1484       H  0.09930690  0.12121092  0.35035709     0.05600
H1485       H  0.15461670  0.09853232  0.36661221     0.05500
N1486       N  0.02133121  0.37486075  0.23144386    -0.27900
N1487       N  0.03792945  0.36780736  0.23777043    -0.35800
C1488       C  0.04830305  0.36131468  0.22272256     0.00400
C1489       C  0.03806976  0.36457888  0.20589482     0.06500
C1490       C  0.02104738  0.37337835  0.21189976    -0.06600
H1491       H  0.06271052  0.35542447  0.22390196     0.07100
H1492       H  0.00937145  0.37831933  0.20275287     0.08300
Cu1493     Cu  0.04774683  0.36876004  0.26599947     0.44200
Cu1494     Cu  0.99999690  0.38577956  0.25025869     0.42000
Cu1495     Cu  0.01727643  0.38923650  0.30068070     0.43900
N1496       N  0.05646065  0.37272130  0.29431796    -0.35300
N1497       N  0.04485873  0.38005163  0.30755053    -0.29500
C1498       C  0.05419597  0.38071949  0.32462814    -0.05600
C1499       C  0.07271440  0.37368991  0.32188284     0.06600
C1500       C  0.07364074  0.36881119  0.30244410     0.00400
H1501       H  0.04811447  0.38634359  0.33791521     0.08000
H1502       H  0.08583186  0.36275364  0.29478555     0.07100
N1503       N  0.98969763  0.39636944  0.29164880    -0.36700
N1504       N  0.98280922  0.39466180  0.27383955    -0.28900
C1505       C  0.96377999  0.39897928  0.27422684    -0.04200
C1506       C  0.95865749  0.40388276  0.29312134     0.04500
C1507       C  0.97554525  0.40201814  0.30359713     0.02600
H1508       H  0.95433803  0.39833597  0.26176717     0.07700
H1509       H  0.97730460  0.40369856  0.31907831     0.06500
C1510       C  0.14834613  0.35536161  0.40769169     0.02500
C1511       C  0.16230306  0.37015710  0.40795156    -0.13600
C1512       C  0.16192115  0.38488569  0.39381352     0.00000
C1513       C  0.14767116  0.38451758  0.37936771    -0.12200
C1514       C  0.13349786  0.37004835  0.37916971     0.02500
C1515       C  0.13391971  0.35557898  0.39343173    -0.11600
H1516       H  0.17332218  0.37023891  0.41907899     0.08100
H1517       H  0.14714729  0.39604317  0.36871878     0.05600
H1518       H  0.12325267  0.34413035  0.39317699     0.05500
N1519       N  0.89110766  0.28302699  0.51078154    -0.27900
N1520       N  0.89607416  0.30020138  0.50392036    -0.35800
C1521       C  0.90220626  0.31139917  0.51860197     0.00400
C1522       C  0.90088624  0.30102854  0.53571105     0.06500
C1523       C  0.89370046  0.28306869  0.53019167    -0.06600
H1524       H  0.90621055  0.32645139  0.51706400     0.07100
H1525       H  0.89019573  0.27108310  0.53963468     0.08300
Cu1526     Cu  0.89160423  0.30938480  0.47557943     0.44200
Cu1527     Cu  0.87984114  0.26091509  0.49321159     0.42000
Cu1528     Cu  0.86116013  0.27914419  0.44722228     0.43900
N1529       N  0.88150327  0.31744116  0.44838354    -0.35300
N1530       N  0.86951692  0.30656311  0.43827676    -0.29500
C1531       C  0.86491553  0.31580413  0.42173849    -0.05600
C1532       C  0.87456387  0.33337123  0.42132353     0.06600
C1533       C  0.88497381  0.33386885  0.43849108     0.00400
H1534       H  0.85553292  0.30996447  0.41067082     0.08000
H1535       H  0.89414229  0.34544973  0.44359686     0.07100
N1536       N  0.85912943  0.25048755  0.45602061    -0.36700
N1537       N  0.86697779  0.24335163  0.47198373    -0.28900
C1538       C  0.86541493  0.22385797  0.47150507    -0.04200
C1539       C  0.85577797  0.21861503  0.45463854     0.04500
C1540       C  0.85203739  0.23591292  0.44528873     0.02600
H1541       H  0.87117771  0.21420181  0.48241207     0.07700
H1542       H  0.84575198  0.23769328  0.43104683     0.06500
C1543       C  0.88675689  0.40891167  0.33400156     0.02500
C1544       C  0.87010822  0.42040200  0.33177353    -0.13600
C1545       C  0.85419856  0.41760770  0.34413284     0.00000
C1546       C  0.85509688  0.40327676  0.35856929    -0.12200
C1547       C  0.87169821  0.39193751  0.36109660     0.02500
C1548       C  0.88748680  0.39494622  0.34878341    -0.11600
H1549       H  0.86948597  0.43126876  0.32047277     0.08100
H1550       H  0.84285677  0.40117825  0.36808613     0.05600
H1551       H  0.90031618  0.38612634  0.35042786     0.05500
N1552       N  0.01297235  0.11811170  0.27400232    -0.27900
N1553       N  0.00597695  0.11677314  0.29177092    -0.35800
C1554       C  0.01998251  0.11121613  0.30396173     0.00400
C1555       C  0.03693106  0.10889488  0.29366744     0.06500
C1556       C  0.03194700  0.11352878  0.27462378    -0.06600
H1557       H  0.01796943  0.10957735  0.31940853     0.07100
H1558       H  0.04140010  0.11358010  0.26217394     0.08300
Cu1559     Cu  0.97810021  0.12334381  0.29998504     0.44200
Cu1560     Cu  0.99555197  0.12642946  0.25026974     0.42000
Cu1561     Cu  0.94669745  0.14263773  0.26531550     0.43900
N1562       N  0.95015611  0.13112556  0.30672172    -0.35300
N1563       N  0.93816572  0.13825184  0.29371542    -0.29500
C1564       C  0.92093138  0.14134992  0.30211716    -0.05600
C1565       C  0.92225779  0.13605689  0.32147895     0.06600
C1566       C  0.94104957  0.12965502  0.32381854     0.00400
H1567       H  0.90844350  0.14709984  0.29469117     0.08000
H1568       H  0.94756798  0.12395058  0.33686659     0.07100
N1569       N  0.95695354  0.14299365  0.23714117    -0.36700
N1570       N  0.97381543  0.13625707  0.23115212    -0.28900
C1571       C  0.97416327  0.13712542  0.21155985    -0.04200
C1572       C  0.95691491  0.14517701  0.20514314     0.04500
C1573       C  0.94649336  0.14866471  0.22179609     0.02600
H1574       H  0.98605373  0.13229481  0.20265569     0.07700
H1575       H  0.93191684  0.15417007  0.22267322     0.06500
C1576       C  0.83521394  0.11998296  0.39506727     0.02500
C1577       C  0.84889589  0.12136874  0.38014853    -0.13600
C1578       C  0.86308885  0.13579044  0.38047840     0.00000
C1579       C  0.86326504  0.14924698  0.39567532    -0.12200
C1580       C  0.84928568  0.14862830  0.41033861     0.02500
C1581       C  0.83531638  0.13382166  0.41011066    -0.11600
H1582       H  0.84906786  0.11060044  0.36872241     0.08100
H1583       H  0.87400559  0.16063237  0.39578754     0.05600
H1584       H  0.82469233  0.13301806  0.42157306     0.05500
C1585       C  0.88739895  0.13600386  0.33126744    -0.14000
C1586       C  0.90697994  0.13663576  0.33645697     0.08200
C1587       C  0.91192710  0.13743401  0.35619363    -0.14000
C1588       C  0.89763961  0.13748234  0.37043661    -0.14000
C1589       C  0.87811129  0.13644326  0.36526580     0.08200
C1590       C  0.87309733  0.13572668  0.34555902    -0.14000
H1591       H  0.88313340  0.13529318  0.31619614     0.12200
H1592       H  0.92685883  0.13812382  0.36067023     0.12200
H1593       H  0.90185517  0.13795782  0.38554428     0.12200
H1594       H  0.85810642  0.13502751  0.34124295     0.12200
C1595       C  0.86530885  0.16765533  0.43674277    -0.14000
C1596       C  0.84908735  0.16433793  0.42498113     0.08200
C1597       C  0.83413414  0.17801108  0.42488984    -0.14000
C1598       C  0.83594734  0.19530618  0.43533040    -0.14000
C1599       C  0.85254307  0.19904244  0.44641674     0.08200
C1600       C  0.86689374  0.18473970  0.44761136    -0.14000
H1601       H  0.87712382  0.15739583  0.43682012     0.12200
H1602       H  0.82164236  0.17588902  0.41571813     0.12200
H1603       H  0.82467185  0.20610037  0.43419314     0.12200
H1604       H  0.87989830  0.18732642  0.45589144     0.12200
C1605       C  0.88939878  0.36107883  0.40312533    -0.14000
C1606       C  0.87387400  0.34832947  0.40589429     0.08200
C1607       C  0.85766329  0.34999772  0.39378642    -0.14000
C1608       C  0.85691189  0.36422008  0.37935723    -0.14000
C1609       C  0.87248183  0.37689400  0.37650291     0.08200
C1610       C  0.88877642  0.37510258  0.38848416    -0.14000
H1611       H  0.90214261  0.36007220  0.41212523     0.12200
H1612       H  0.84542537  0.34047522  0.39562601     0.12200
H1613       H  0.84423191  0.36516205  0.37024728     0.12200
H1614       H  0.90093617  0.38474693  0.38669672     0.12200
C1615       C  0.93806593  0.41818815  0.31920876    -0.14000
C1616       C  0.93935125  0.40816926  0.30149760     0.08200
C1617       C  0.92234728  0.40079560  0.29320031    -0.14000
C1618       C  0.90472196  0.40223358  0.30314759    -0.14000
C1619       C  0.90385049  0.41121880  0.32140056     0.08200
C1620       C  0.92055380  0.41959434  0.32907854    -0.14000
H1621       H  0.95078311  0.42434618  0.32586506     0.12200
H1622       H  0.92285840  0.39293963  0.27963792     0.12200
H1623       H  0.89202029  0.39539536  0.29713442     0.12200
H1624       H  0.92021281  0.42643254  0.34320080     0.12200
C1625       C  0.10761941  0.37471816  0.33093276    -0.14000
C1626       C  0.08829802  0.37223702  0.33642477     0.08200
C1627       C  0.08396527  0.36858530  0.35594756    -0.14000
C1628       C  0.09868557  0.36747340  0.36975065    -0.14000
C1629       C  0.11799198  0.37035871  0.36435129     0.08200
C1630       C  0.12231289  0.37396830  0.34479320    -0.14000
H1631       H  0.11133558  0.37764557  0.31598371     0.12200
H1632       H  0.06919495  0.36647720  0.36052154     0.12200
H1633       H  0.09493810  0.36479768  0.38474148     0.12200
H1634       H  0.13708164  0.37611038  0.34021959     0.12200
C1635       C  0.07464608  0.09181624  0.32972336    -0.14000
C1636       C  0.09191407  0.09746042  0.32088094     0.08200
C1637       C  0.09126457  0.10545728  0.30216368    -0.14000
C1638       C  0.07347241  0.10848398  0.29280620    -0.14000
C1639       C  0.05606591  0.10364816  0.30209470     0.08200
C1640       C  0.05698799  0.09474816  0.32043161    -0.14000
H1641       H  0.07479841  0.08576037  0.34420394     0.12200
H1642       H  0.10441588  0.11021909  0.29521497     0.12200
H1643       H  0.07331162  0.11539989  0.27873622     0.12200
H1644       H  0.04400043  0.09044221  0.32793028     0.12200
C1645       C  0.13219899  0.31877720  0.44517652    -0.14000
C1646       C  0.14593570  0.30403986  0.44268261     0.08200
C1647       C  0.16165703  0.30739035  0.43026000    -0.14000
C1648       C  0.16321173  0.32479464  0.41995985    -0.14000
C1649       C  0.14887045  0.33901230  0.42158194     0.08200
C1650       C  0.13350924  0.33600286  0.43449197    -0.14000
H1651       H  0.11985683  0.31652191  0.45448962     0.12200
H1652       H  0.17248143  0.29629542  0.42809927     0.12200
H1653       H  0.17502123  0.32670535  0.40988918     0.12200
H1654       H  0.12216060  0.34670520  0.43574495     0.12200
C1655       C  0.12734000  0.15925357  0.38700492    -0.14000
C1656       C  0.13008517  0.15330794  0.40627892     0.08200
C1657       C  0.13204208  0.13347104  0.41032037    -0.14000
C1658       C  0.13140936  0.11984250  0.39530847    -0.14000
C1659       C  0.12828701  0.12580753  0.37610303     0.08200
C1660       C  0.12621573  0.14561264  0.37209145    -0.14000
H1661       H  0.12565285  0.17443981  0.38350299     0.12200
H1662       H  0.13427034  0.12853960  0.42504753     0.12200
H1663       H  0.13301988  0.10461801  0.39870367     0.12200
H1664       H  0.12389037  0.15052033  0.35736632     0.12200
C1665       C  0.35433766  0.65147878  0.38862084    -0.14000
C1666       C  0.37123781  0.65407956  0.39953849     0.08200
C1667       C  0.38728553  0.64231777  0.39556347    -0.14000
C1668       C  0.38654609  0.62845523  0.38080254    -0.14000
C1669       C  0.36965736  0.62585502  0.36984111     0.08200
C1670       C  0.35350920  0.63742695  0.37402401    -0.14000
H1671       H  0.34168726  0.66021123  0.39145230     0.12200
H1672       H  0.40054391  0.64402944  0.40365212     0.12200
H1673       H  0.39915063  0.61960831  0.37808963     0.12200
H1674       H  0.34032924  0.63583216  0.36577344     0.12200
C1675       C  0.18688938  0.40607489  0.37836753    -0.14000
C1676       C  0.17536108  0.40155004  0.39448603     0.08200
C1677       C  0.17471317  0.41451477  0.41011475    -0.14000
C1678       C  0.18457313  0.43217246  0.40919180    -0.14000
C1679       C  0.19564875  0.43698310  0.39283056     0.08200
C1680       C  0.19718200  0.42351718  0.37766926    -0.14000
H1681       H  0.18740021  0.39637102  0.36605195     0.12200
H1682       H  0.16569922  0.41146268  0.42254771     0.12200
H1683       H  0.18313263  0.44232969  0.42105809     0.12200
H1684       H  0.20541712  0.42696345  0.36480593     0.12200
C1685       C  0.30091160  0.56912900  0.33071807    -0.14000
C1686       C  0.30025252  0.55165747  0.34121759     0.08200
C1687       C  0.31762178  0.54384910  0.34829002    -0.14000
C1688       C  0.33501328  0.55398958  0.34599352    -0.14000
C1689       C  0.33529440  0.57195866  0.33646134     0.08200
C1690       C  0.31820546  0.57921361  0.32848848    -0.14000
H1691       H  0.28791533  0.57542091  0.32474760     0.12200
H1692       H  0.31762560  0.53049390  0.35649214     0.12200
H1693       H  0.34805162  0.54832381  0.35251417     0.12200
H1694       H  0.31811262  0.59312823  0.32124709     0.12200
C1695       C  0.15892603  0.60701472  0.38420300    -0.14000
C1696       C  0.15416629  0.58729348  0.38293399     0.08200
C1697       C  0.13467982  0.58184775  0.38323630    -0.14000
C1698       C  0.12019934  0.59590451  0.38429783    -0.14000
C1699       C  0.12496215  0.61561569  0.38556070     0.08200
C1700       C  0.14444700  0.62104283  0.38575077    -0.14000
H1701       H  0.17384927  0.61157035  0.38412675     0.12200
H1702       H  0.13062870  0.56675343  0.38216462     0.12200
H1703       H  0.10525255  0.59141078  0.38413496     0.12200
H1704       H  0.14842986  0.63617511  0.38659033     0.12200
C1705       C  0.42039690  0.59968241  0.28576578    -0.14000
C1706       C  0.43762642  0.59498117  0.29549876     0.08200
C1707       C  0.43643225  0.58737750  0.31437601    -0.14000
C1708       C  0.41878348  0.58612390  0.32392566    -0.14000
C1709       C  0.40178452  0.59212319  0.31479114     0.08200
C1710       C  0.40255994  0.59829654  0.29539145    -0.14000
H1711       H  0.42079523  0.60551689  0.27121567     0.12200
H1712       H  0.44927327  0.58309467  0.32217954     0.12200
H1713       H  0.41849218  0.58129979  0.33886160     0.12200
H1714       H  0.38957853  0.60313333  0.28813305     0.12200
C1715       C  0.58107051  0.63439089  0.35223518    -0.14000
C1716       C  0.58535189  0.63207813  0.33247292     0.08200
C1717       C  0.60466698  0.62965980  0.32686361    -0.14000
C1718       C  0.61938110  0.62940623  0.34074265    -0.14000
C1719       C  0.61512117  0.63194972  0.36047632     0.08200
C1720       C  0.59582562  0.63452390  0.36607591    -0.14000
H1721       H  0.56632877  0.63634602  0.35697503     0.12200
H1722       H  0.60838930  0.62765988  0.31176612     0.12200
H1723       H  0.63414197  0.62745982  0.33604167     0.12200
H1724       H  0.59214533  0.63636867  0.38121162     0.12200
C1725       C  0.55478535  0.65835493  0.17610815    -0.14000
C1726       C  0.54501053  0.64117474  0.18083472     0.08200
C1727       C  0.54470229  0.62601374  0.16729269    -0.14000
C1728       C  0.55515997  0.62751298  0.14995955    -0.14000
C1729       C  0.56562697  0.64440871  0.14563048     0.08200
C1730       C  0.56477769  0.66005547  0.15856362    -0.14000
H1731       H  0.55522986  0.67025044  0.18632075     0.12200
H1732       H  0.53743207  0.61256772  0.17066484     0.12200
H1733       H  0.55572429  0.61519917  0.14026152     0.12200
H1734       H  0.57289375  0.67312324  0.15567976     0.12200
C1735       C  0.65930156  0.60934411  0.11447406    -0.14000
C1736       C  0.65536415  0.58953900  0.11678973     0.08200
C1737       C  0.63609773  0.58352364  0.11847013    -0.14000
C1738       C  0.62109986  0.59708280  0.11808334    -0.14000
C1739       C  0.62505712  0.61688945  0.11570794     0.08200
C1740       C  0.64430880  0.62285446  0.11381179    -0.14000
H1741       H  0.67397999  0.61441015  0.11299786     0.12200
H1742       H  0.63261821  0.56837446  0.12039379     0.12200
H1743       H  0.60638226  0.59207587  0.11945593     0.12200
H1744       H  0.64778927  0.63803964  0.11212728     0.12200
C1745       C  0.84062573  0.55754919  0.15141472    -0.14000
C1746       C  0.84122261  0.57686766  0.15774529     0.08200
C1747       C  0.82395011  0.58625638  0.16243140    -0.14000
C1748       C  0.80629871  0.57694061  0.15991099    -0.14000
C1749       C  0.80541815  0.55803222  0.15236752     0.08200
C1750       C  0.82282911  0.54816426  0.14877425    -0.14000
H1751       H  0.85381688  0.55012953  0.14750967     0.12200
H1752       H  0.82410325  0.60116993  0.16729216     0.12200
H1753       H  0.79330216  0.58488618  0.16333055     0.12200
H1754       H  0.82269732  0.53360116  0.14299808     0.12200
C1755       C  0.87876829  0.63978212  0.09241964    -0.14000
C1756       C  0.87842276  0.65947393  0.09754054     0.08200
C1757       C  0.87741308  0.66451441  0.11725896    -0.14000
C1758       C  0.87692311  0.65015907  0.13155338    -0.14000
C1759       C  0.87700704  0.63053758  0.12636205     0.08200
C1760       C  0.87783850  0.62543881  0.10670686    -0.14000
H1761       H  0.87936246  0.63545362  0.07735785     0.12200
H1762       H  0.87722111  0.67955534  0.12165524     0.12200
H1763       H  0.87622407  0.65434054  0.14666377     0.12200
H1764       H  0.87790986  0.61034558  0.10245482     0.12200
C1765       C  0.11058439  0.69587841  0.43794915    -0.14000
C1766       C  0.09658100  0.69325398  0.45240246     0.08200
C1767       C  0.08080097  0.68109533  0.44847778    -0.14000
C1768       C  0.07942125  0.67118160  0.43079254    -0.14000
C1769       C  0.09402852  0.67285986  0.41685028     0.08200
C1770       C  0.10947484  0.68553159  0.42046119    -0.14000
H1771       H  0.12299833  0.70497006  0.44065470     0.12200
H1772       H  0.06981665  0.67879463  0.45937235     0.12200
H1773       H  0.06754719  0.66128500  0.42847883     0.12200
H1774       H  0.12105428  0.68683281  0.41003287     0.12200
C1775       C  0.14002389  0.65015074  0.61427057    -0.14000
C1776       C  0.12470266  0.65096774  0.60095078     0.08200
C1777       C  0.10962257  0.63750584  0.60267229    -0.14000
C1778       C  0.10974121  0.62371691  0.61754103    -0.14000
C1779       C  0.12508469  0.62291200  0.63080651     0.08200
C1780       C  0.14026302  0.63621099  0.62895880    -0.14000
H1781       H  0.15194563  0.66018271  0.61327745     0.12200
H1782       H  0.09755967  0.63779997  0.59273021     0.12200
H1783       H  0.09795870  0.61350119  0.61853085     0.12200
H1784       H  0.15223902  0.63594167  0.63902952     0.12200
C1785       C  0.38975115  0.37400884  0.66534086    -0.14000
C1786       C  0.40905414  0.37257665  0.65932639     0.08200
C1787       C  0.41300985  0.37030620  0.63948621    -0.14000
C1788       C  0.39797514  0.36943689  0.62597432    -0.14000
C1789       C  0.37871102  0.37117472  0.63199520     0.08200
C1790       C  0.37475319  0.37348936  0.65180123    -0.14000
H1791       H  0.38621678  0.37589278  0.68049485     0.12200
H1792       H  0.42771265  0.36902484  0.63441757     0.12200
H1793       H  0.40139971  0.36771526  0.61076238     0.12200
H1794       H  0.36001896  0.37472914  0.65681485     0.12200
C1795       C  0.36314294  0.31775069  0.55342922    -0.14000
C1796       C  0.34890562  0.30351815  0.55572782     0.08200
C1797       C  0.33288373  0.30755881  0.56753020    -0.14000
C1798       C  0.33153187  0.32516766  0.57751287    -0.14000
C1799       C  0.34641202  0.33882986  0.57622910     0.08200
C1800       C  0.36203935  0.33514541  0.56381674    -0.14000
H1801       H  0.37571765  0.31492880  0.54458561     0.12200
H1802       H  0.32171047  0.29681035  0.56952074     0.12200
H1803       H  0.31947490  0.32761441  0.58716737     0.12200
H1804       H  0.37375788  0.34543297  0.56277265     0.12200
C1805       C  0.35666886  0.15320052  0.61060220    -0.14000
C1806       C  0.37256785  0.15490219  0.59814913     0.08200
C1807       C  0.38806355  0.14195090  0.60025231    -0.14000
C1808       C  0.38763665  0.12754426  0.61448687    -0.14000
C1809       C  0.37158626  0.12563652  0.62671971     0.08200
C1810       C  0.35612926  0.13864379  0.62465467    -0.14000
H1811       H  0.34447266  0.16289468  0.60926792     0.12200
H1812       H  0.40058222  0.14301569  0.59097148     0.12200
H1813       H  0.39970254  0.11766036  0.61570146     0.12200
H1814       H  0.34366193  0.13763271  0.63402598     0.12200
C1815       C  0.39955226  0.68751371  0.58239437    -0.14000
C1816       C  0.40503173  0.66792957  0.58285949     0.08200
C1817       C  0.40996250  0.65875294  0.56546162    -0.14000
C1818       C  0.40897477  0.66872059  0.54786140    -0.14000
C1819       C  0.40262137  0.68811429  0.54705370     0.08200
C1820       C  0.39827197  0.69749708  0.56465714    -0.14000
H1821       H  0.39550716  0.69483704  0.59565886     0.12200
H1822       H  0.41421116  0.64365550  0.56546528     0.12200
H1823       H  0.41274912  0.66086394  0.53487828     0.12200
H1824       H  0.39342616  0.71238287  0.56474202     0.12200
C1825       C  0.17895882  0.54280982  0.65414829    -0.14000
C1826       C  0.19629705  0.55189294  0.65955713     0.08200
C1827       C  0.19528412  0.56998627  0.66893766    -0.14000
C1828       C  0.17760279  0.57933949  0.67157843    -0.14000
C1829       C  0.16046804  0.57071152  0.66522766     0.08200
C1830       C  0.16119933  0.55216355  0.65694985    -0.14000
H1831       H  0.17913231  0.52893167  0.64688842     0.12200
H1832       H  0.20820239  0.57732618  0.67369380     0.12200
H1833       H  0.17736440  0.59374030  0.67779199     0.12200
H1834       H  0.14814967  0.54543612  0.65159948     0.12200
C1835       C  0.32249352  0.41562877  0.58907820    -0.14000
C1836       C  0.32001440  0.40136274  0.60329024     0.08200
C1837       C  0.30672955  0.40459598  0.61831128    -0.14000
C1838       C  0.29657656  0.42216000  0.61945817    -0.14000
C1839       C  0.30001418  0.43695035  0.60591166     0.08200
C1840       C  0.31271127  0.43329453  0.59045338    -0.14000
H1841       H  0.33285276  0.41352553  0.57753318     0.12200
H1842       H  0.30481158  0.39383524  0.62955618     0.12200
H1843       H  0.28700685  0.42462644  0.63159369     0.12200
H1844       H  0.31557865  0.44438716  0.57975194     0.12200
C1845       C  0.34624573  0.60034799  0.63716893    -0.14000
C1846       C  0.34470070  0.58582841  0.62299317     0.08200
C1847       C  0.35775556  0.58584318  0.60741222    -0.14000
C1848       C  0.37182989  0.60028001  0.60588632    -0.14000
C1849       C  0.37333922  0.61473496  0.62010467     0.08200
C1850       C  0.36049416  0.61455548  0.63580831    -0.14000
H1851       H  0.33654417  0.60066918  0.64943412     0.12200
H1852       H  0.35688298  0.57492343  0.59620261     0.12200
H1853       H  0.38165948  0.60007059  0.59370741     0.12200
H1854       H  0.36133314  0.62560121  0.64691562     0.12200
C1855       C  0.41392359  0.16531385  0.42875958    -0.14000
C1856       C  0.40414378  0.17222949  0.41240639     0.08200
C1857       C  0.39351664  0.18948402  0.41383674    -0.14000
C1858       C  0.39208748  0.19926267  0.43163644    -0.14000
C1859       C  0.40100976  0.19172733  0.44834465     0.08200
C1860       C  0.41242545  0.17496047  0.44650589    -0.14000
H1861       H  0.42199445  0.15190173  0.42799845     0.12200
H1862       H  0.38561134  0.19487054  0.40141735     0.12200
H1863       H  0.38315979  0.21208708  0.43251732     0.12200
H1864       H  0.41976766  0.16888513  0.45893745     0.12200
C1865       C  0.17683039  0.04389466  0.34922397    -0.14000
C1866       C  0.19385902  0.05223245  0.34198275     0.08200
C1867       C  0.19251986  0.06996437  0.33198534    -0.14000
C1868       C  0.17495251  0.07980281  0.33054063    -0.14000
C1869       C  0.15824282  0.07210491  0.33888982     0.08200
C1870       C  0.15917776  0.05383576  0.34780616    -0.14000
H1871       H  0.17734183  0.03032334  0.35704562     0.12200
H1872       H  0.20523388  0.07669247  0.32592333     0.12200
H1873       H  0.17460990  0.09398518  0.32384502     0.12200
H1874       H  0.14650540  0.04782310  0.35468270     0.12200
C1875       C  0.35140851  0.12316278  0.38026214    -0.14000
C1876       C  0.37085864  0.11762026  0.37953499     0.08200
C1877       C  0.37552878  0.09788406  0.37846539    -0.14000
C1878       C  0.36099540  0.08388160  0.37823041    -0.14000
C1879       C  0.34149620  0.08937817  0.37862145     0.08200
C1880       C  0.33684164  0.10917296  0.37958824    -0.14000
H1881       H  0.34751369  0.13833287  0.38102832     0.12200
H1882       H  0.39045603  0.09331909  0.37794226     0.12200
H1883       H  0.36503356  0.06876850  0.37733383     0.12200
H1884       H  0.32194975  0.11383444  0.38001960     0.12200
C1885       C  0.42975187  0.15679178  0.31322091    -0.14000
C1886       C  0.44533046  0.14395177  0.31079332     0.08200
C1887       C  0.45243676  0.13407380  0.32713977    -0.14000
C1888       C  0.44321462  0.13597161  0.34518393    -0.14000
C1889       C  0.42705486  0.14808859  0.34720504     0.08200
C1890       C  0.42073772  0.15882866  0.33120821    -0.14000
H1891       H  0.42406552  0.16482935  0.30102347     0.12200
H1892       H  0.46433655  0.12402681  0.32573020     0.12200
H1893       H  0.44808061  0.12728898  0.35730704     0.12200
H1894       H  0.40813711  0.16802394  0.33240027     0.12200
C1895       C  0.40876285  0.13019271  0.13960292    -0.14000
C1896       C  0.40387539  0.12718100  0.15913714     0.08200
C1897       C  0.38438852  0.12495513  0.16410967    -0.14000
C1898       C  0.37007895  0.12567383  0.14986060    -0.14000
C1899       C  0.37491394  0.12897371  0.13037483     0.08200
C1900       C  0.39440018  0.13126164  0.12537938    -0.14000
H1901       H  0.42366198  0.13202746  0.13535406     0.12200
H1902       H  0.38020100  0.12243314  0.17900247     0.12200
H1903       H  0.35516225  0.12394293  0.15411368     0.12200
H1904       H  0.39851913  0.13366569  0.11043971     0.12200
C1905       C  0.16414249  0.82048176  0.58978724    -0.14000
C1906       C  0.15272342  0.83648057  0.58487773     0.08200
C1907       C  0.13969659  0.83490551  0.56937293    -0.14000
C1908       C  0.13768889  0.81736662  0.55929789    -0.14000
C1909       C  0.14842250  0.80099203  0.56482896     0.08200
C1910       C  0.16201233  0.80291774  0.57988348    -0.14000
H1911       H  0.17407514  0.82133326  0.60187193     0.12200
H1912       H  0.13051851  0.84702805  0.56560165     0.12200
H1913       H  0.12702778  0.81635832  0.54788859     0.12200
H1914       H  0.17066907  0.79067258  0.58438809     0.12200
C1915       C  0.10590705  0.86019605  0.66883444    -0.14000
C1916       C  0.09158611  0.87457085  0.66724383     0.08200
C1917       C  0.09217623  0.88728095  0.65130751    -0.14000
C1918       C  0.10677931  0.88579054  0.63747731    -0.14000
C1919       C  0.12095101  0.87143538  0.63913373     0.08200
C1920       C  0.12039023  0.85857392  0.65482083    -0.14000
H1921       H  0.10592908  0.85010269  0.68081160     0.12200
H1922       H  0.08154199  0.89859139  0.64954963     0.12200
H1923       H  0.10701528  0.89582882  0.62541720     0.12200
H1924       H  0.13130799  0.84745757  0.65633587     0.12200
C1925       C  0.81698317  0.45760551  0.34954073    -0.14000
C1926       C  0.79983189  0.44733901  0.34590980     0.08200
C1927       C  0.80123454  0.42820850  0.33900887    -0.14000
C1928       C  0.81909816  0.41906754  0.33726692    -0.14000
C1929       C  0.83609998  0.42885826  0.34206450     0.08200
C1930       C  0.83500587  0.44840463  0.34764912    -0.14000
H1931       H  0.81645151  0.47234437  0.35483508     0.12200
H1932       H  0.78845154  0.41995012  0.33556339     0.12200
H1933       H  0.81960998  0.40399901  0.33293840     0.12200
H1934       H  0.84796959  0.45616878  0.35161320     0.12200
C1935       C  0.69328227  0.57673832  0.37266963    -0.14000
C1936       C  0.69185351  0.56345246  0.38800976     0.08200
C1937       C  0.68134852  0.56877945  0.40460999    -0.14000
C1938       C  0.67193133  0.58671807  0.40560788    -0.14000
C1939       C  0.67240796  0.59951243  0.38982754     0.08200
C1940       C  0.68340203  0.59447897  0.37345174    -0.14000
H1941       H  0.70112190  0.57295298  0.35964748     0.12200
H1942       H  0.68003260  0.55882972  0.41666183     0.12200
H1943       H  0.66335648  0.59013294  0.41826326     0.12200
H1944       H  0.68381151  0.60403188  0.36101511     0.12200
C1945       C  0.63212181  0.41853981  0.38377761    -0.14000
C1946       C  0.65146017  0.41239826  0.38388623     0.08200
C1947       C  0.65543650  0.39244133  0.38342077    -0.14000
C1948       C  0.64043658  0.37895039  0.38289929    -0.14000
C1949       C  0.62116882  0.38513387  0.38249083     0.08200
C1950       C  0.61712451  0.40503153  0.38289544    -0.14000
H1951       H  0.62854650  0.43378823  0.38398170     0.12200
H1952       H  0.67014270  0.38721395  0.38361647     0.12200
H1953       H  0.64386730  0.36365231  0.38255596     0.12200
H1954       H  0.60234789  0.41009301  0.38269000     0.12200
C1955       C  0.69393267  0.40852883  0.12148332    -0.14000
C1956       C  0.68239699  0.40398454  0.10534644     0.08200
C1957       C  0.68144657  0.41710764  0.08987107    -0.14000
C1958       C  0.69085231  0.43497763  0.09101975    -0.14000
C1959       C  0.70179414  0.43987527  0.10744889     0.08200
C1960       C  0.70381465  0.42622498  0.12239231    -0.14000
H1961       H  0.69469669  0.39867934  0.13367035     0.12200
H1962       H  0.67244413  0.41403090  0.07742041     0.12200
H1963       H  0.68904795  0.44528502  0.07932933     0.12200
H1964       H  0.71198205  0.42974977  0.13529235     0.12200
C1965       C  0.55912555  0.34494263  0.31545698    -0.14000
C1966       C  0.54677076  0.36059453  0.31139109     0.08200
C1967       C  0.54261601  0.37385627  0.32626033    -0.14000
C1968       C  0.55173136  0.37222793  0.34438028    -0.14000
C1969       C  0.56465000  0.35697264  0.34811254     0.08200
C1970       C  0.56782242  0.34305313  0.33367670    -0.14000
H1971       H  0.56254389  0.33446233  0.30430472     0.12200
H1972       H  0.53329544  0.38613187  0.32349534     0.12200
H1973       H  0.54929158  0.38327336  0.35524299     0.12200
H1974       H  0.57793315  0.33134555  0.33612870     0.12200
C1975       C  0.59023417  0.37192980  0.14153243    -0.14000
C1976       C  0.59425855  0.37345204  0.16144341     0.08200
C1977       C  0.61359831  0.37438005  0.16746439    -0.14000
C1978       C  0.62855242  0.37406113  0.15385083    -0.14000
C1979       C  0.62448966  0.37244055  0.13397242     0.08200
C1980       C  0.60519048  0.37126297  0.12796370    -0.14000
H1981       H  0.57551530  0.37105265  0.13641694     0.12200
H1982       H  0.61718554  0.37568794  0.18267222     0.12200
H1983       H  0.64332385  0.37492976  0.15884885     0.12200
H1984       H  0.60167457  0.37014610  0.11271198     0.12200
C1985       C  0.59429960  0.40374680  0.69493433    -0.14000
C1986       C  0.59539938  0.41237961  0.67652793     0.08200
C1987       C  0.57847766  0.41935145  0.66790200    -0.14000
C1988       C  0.56064856  0.41690329  0.67696706    -0.14000
C1989       C  0.55922450  0.40726256  0.69487770     0.08200
C1990       C  0.57634833  0.40131646  0.70411247    -0.14000
H1991       H  0.60715058  0.39790600  0.70167023     0.12200
H1992       H  0.57896487  0.42581614  0.65360716     0.12200
H1993       H  0.54787907  0.42201703  0.66955115     0.12200
H1994       H  0.57578891  0.39381655  0.71786916     0.12200
C1995       C  0.60590325  0.30489950  0.43190515    -0.14000
C1996       C  0.59138288  0.30663322  0.44593122     0.08200
C1997       C  0.57506886  0.31798422  0.44175639    -0.14000
C1998       C  0.57369952  0.32813278  0.42420542    -0.14000
C1999       C  0.58888345  0.32752676  0.41079960     0.08200
C2000       C  0.60479031  0.31547605  0.41460636    -0.14000
H2001       H  0.61874564  0.29650029  0.43492859     0.12200
H2002       H  0.56377505  0.31965063  0.45245223     0.12200
H2003       H  0.56145687  0.33755437  0.42172673     0.12200
H2004       H  0.61679002  0.31501679  0.40459094     0.12200
C2005       C  0.62680299  0.34605201  0.61235284    -0.14000
C2006       C  0.62714911  0.35123684  0.59266988     0.08200
C2007       C  0.62807988  0.37091675  0.58762732    -0.14000
C2008       C  0.62884602  0.38514318  0.60203828    -0.14000
C2009       C  0.62819868  0.37991479  0.62167416     0.08200
C2010       C  0.62708856  0.36028903  0.62672808    -0.14000
H2011       H  0.62592468  0.33100253  0.61663813     0.12200
H2012       H  0.62845860  0.37527660  0.57256268     0.12200
H2013       H  0.62963803  0.40024417  0.59789126     0.12200
H2014       H  0.62658996  0.35600412  0.64181765     0.12200
C2015       C  0.42373952  0.41187101  0.16350490    -0.14000
C2016       C  0.40672326  0.40870014  0.17396178     0.08200
C2017       C  0.40801288  0.40498469  0.19394519    -0.14000
C2018       C  0.42611154  0.40333458  0.20302804    -0.14000
C2019       C  0.44324265  0.40548268  0.19229102     0.08200
C2020       C  0.44171037  0.41046084  0.17254662    -0.14000
H2021       H  0.42312412  0.41485458  0.14810395     0.12200
H2022       H  0.39507380  0.40234544  0.20229159     0.12200
H2023       H  0.42664346  0.39960311  0.21824236     0.12200
H2024       H  0.45439591  0.41275185  0.16377331     0.12200
C2025       C  0.33183505  0.19572469  0.06795255    -0.14000
C2026       C  0.34652065  0.19873601  0.05422202     0.08200
C2027       C  0.35939196  0.18350825  0.05028661    -0.14000
C2028       C  0.35826963  0.16608397  0.06071252    -0.14000
C2029       C  0.34392925  0.16339703  0.07482587     0.08200
C2030       C  0.33045914  0.17818297  0.07802479    -0.14000
H2031       H  0.32163530  0.20713436  0.07123094     0.12200
H2032       H  0.37092950  0.18544009  0.03991967     0.12200
H2033       H  0.36893096  0.15490405  0.05819159     0.12200
H2034       H  0.31943568  0.17649414  0.08899587     0.12200
C2035       C  0.35164590  0.34941535  0.10591322    -0.14000
C2036       C  0.36622537  0.34845038  0.09180330     0.08200
C2037       C  0.38186505  0.36128693  0.09314475    -0.14000
C2038       C  0.38300422  0.37466285  0.10831684    -0.14000
C2039       C  0.36838653  0.37573002  0.12234212     0.08200
C2040       C  0.35263622  0.36302640  0.12093457    -0.14000
H2041       H  0.33936732  0.33978979  0.10523751     0.12200
H2042       H  0.39341533  0.36082254  0.08262994     0.12200
H2043       H  0.39522097  0.38438181  0.10894888     0.12200
H2044       H  0.34120643  0.36347828  0.13160124     0.12200
C2045       C  0.05317705  0.37291780  0.15385884    -0.14000
C2046       C  0.06526736  0.35688827  0.15060809     0.08200
C2047       C  0.06641619  0.34236292  0.16474523    -0.14000
C2048       C  0.05671182  0.34446511  0.18238344    -0.14000
C2049       C  0.04532648  0.36091699  0.18604323     0.08200
C2050       C  0.04304389  0.37477993  0.17134375    -0.14000
H2051       H  0.05231939  0.38442114  0.14322776     0.12200
H2052       H  0.07588526  0.33005824  0.16267974     0.12200
H2053       H  0.05868874  0.33356521  0.19349239     0.12200
H2054       H  0.03451861  0.38767111  0.17388238     0.12200
C2055       C  0.31878323  0.45698802  0.15168263    -0.14000
C2056       C  0.30189004  0.44837001  0.15892840     0.08200
C2057       C  0.30341736  0.43023623  0.16815502    -0.14000
C2058       C  0.32100711  0.42035118  0.16883661    -0.14000
C2059       C  0.33757804  0.42845151  0.16058850     0.08200
C2060       C  0.33647417  0.44707173  0.15246458    -0.14000
H2061       H  0.31816107  0.47087509  0.14444914     0.12200
H2062       H  0.29085122  0.42327498  0.17425090     0.12200
H2063       H  0.32150488  0.40593856  0.17500919     0.12200
H2064       H  0.34904354  0.45343171  0.14570968     0.12200
C2065       C  0.13369400  0.41961200  0.12377026    -0.14000
C2066       C  0.15319606  0.41415112  0.12430853     0.08200
C2067       C  0.15794247  0.39438732  0.12333881    -0.14000
C2068       C  0.14348179  0.38037722  0.12181512    -0.14000
C2069       C  0.12399160  0.38583910  0.12161646     0.08200
C2070       C  0.11922637  0.40557784  0.12262799    -0.14000
H2071       H  0.12959388  0.43471224  0.12461876     0.12200
H2072       H  0.17284641  0.38975305  0.12358576     0.12200
H2073       H  0.14749576  0.36523307  0.12118599     0.12200
H2074       H  0.10428705  0.41013127  0.12244517     0.12200
C2075       C  0.08087761  0.31561291  0.06048849    -0.14000
C2076       C  0.09786160  0.30540570  0.05614007     0.08200
C2077       C  0.11302297  0.30548434  0.06961576    -0.14000
C2078       C  0.11168095  0.31663521  0.08653893    -0.14000
C2079       C  0.09495443  0.32745316  0.09052167     0.08200
C2080       C  0.07933209  0.32631920  0.07765053    -0.14000
H2081       H  0.06900612  0.31577300  0.05029247     0.12200
H2082       H  0.12632842  0.29789445  0.06650318     0.12200
H2083       H  0.12395060  0.31736659  0.09621875     0.12200
H2084       H  0.06638054  0.33467061  0.08029410     0.12200
C2085       C  0.10476563  0.35800784  0.90621166    -0.14000
C2086       C  0.12060416  0.34543760  0.90804871     0.08200
C2087       C  0.13632693  0.34769532  0.89543903    -0.14000
C2088       C  0.13626493  0.36223905  0.88137920    -0.14000
C2089       C  0.12044343  0.37481646  0.87953160     0.08200
C2090       C  0.10464922  0.37249021  0.89204383    -0.14000
H2091       H  0.09236794  0.35657567  0.91559966     0.12200
H2092       H  0.14881599  0.33836794  0.89653198     0.12200
H2093       H  0.14855788  0.36354036  0.87181404     0.12200
H2094       H  0.09232514  0.38207094  0.89107214     0.12200
C2095       C  0.45302169  0.37428539  0.82395956    -0.14000
C2096       C  0.45236622  0.35970028  0.80981927     0.08200
C2097       C  0.44219750  0.34257148  0.81389940    -0.14000
C2098       C  0.43218837  0.34038680  0.83142028    -0.14000
C2099       C  0.43170292  0.35552020  0.84498022     0.08200
C2100       C  0.44254969  0.37232970  0.84125610    -0.14000
H2101       H  0.46051767  0.38771813  0.82106522     0.12200
H2102       H  0.44138878  0.33116122  0.80316643     0.12200
H2103       H  0.42374823  0.32742549  0.83379391     0.12200
H2104       H  0.44222010  0.38429389  0.85139257     0.12200
C2105       C  0.38870741  0.31269772  0.90851122    -0.14000
C2106       C  0.40344381  0.32651649  0.90647163     0.08200
C2107       C  0.41592183  0.32978368  0.92212794    -0.14000
C2108       C  0.41298609  0.32033437  0.93986695    -0.14000
C2109       C  0.39772250  0.30714748  0.94222643     0.08200
C2110       C  0.38605548  0.30286865  0.92613788    -0.14000
H2111       H  0.37865378  0.31025053  0.89675575     0.12200
H2112       H  0.42711927  0.34063792  0.92104069     0.12200
H2113       H  0.42222894  0.32388530  0.95200365     0.12200
H2114       H  0.37408314  0.29293556  0.92757136     0.12200
C2115       C  0.15715666  0.44687514  0.84960219    -0.14000
C2116       C  0.15607115  0.42701609  0.84531508     0.08200
C2117       C  0.17321616  0.41672124  0.84219381    -0.14000
C2118       C  0.19108303  0.42569576  0.84444806    -0.14000
C2119       C  0.19238578  0.44523755  0.85011261     0.08200
C2120       C  0.17517759  0.45592471  0.85199427    -0.14000
H2121       H  0.14411850  0.45506884  0.85229679     0.12200
H2122       H  0.17276599  0.40139946  0.83886903     0.12200
H2123       H  0.20386151  0.41699641  0.84229909     0.12200
H2124       H  0.17558053  0.47099793  0.85622420     0.12200
C2125       C  0.36248244  0.41743674  0.87319351    -0.14000
C2126       C  0.34320477  0.41204947  0.87631361     0.08200
C2127       C  0.33886319  0.39234937  0.87891584    -0.14000
C2128       C  0.35346017  0.37838285  0.87857691    -0.14000
C2129       C  0.37272823  0.38375342  0.87543330     0.08200
C2130       C  0.37706944  0.40342545  0.87263535    -0.14000
H2131       H  0.36630030  0.43246014  0.87098592     0.12200
H2132       H  0.32419720  0.38770086  0.88146424     0.12200
H2133       H  0.34965358  0.36332119  0.88061867     0.12200
H2134       H  0.39180762  0.40800812  0.87033378     0.12200
C2135       C  0.06743984  0.40506541  0.79913164    -0.14000
C2136       C  0.05017318  0.40874200  0.80923338     0.08200
C2137       C  0.05145316  0.41541543  0.82848265    -0.14000
C2138       C  0.06926786  0.41688229  0.83781125    -0.14000
C2139       C  0.08634378  0.41206264  0.82810030     0.08200
C2140       C  0.08536860  0.40672873  0.80849226    -0.14000
H2141       H  0.06712509  0.40002407  0.78430039     0.12200
H2142       H  0.03867367  0.41884024  0.83674162     0.12200
H2143       H  0.06966933  0.42092235  0.85297504     0.12200
H2144       H  0.09835374  0.40267454  0.80079594     0.12200
C2145       C  0.88563780  0.36042829  0.83943688    -0.14000
C2146       C  0.90012344  0.37463356  0.84020595     0.08200
C2147       C  0.89880739  0.38925700  0.85435093    -0.14000
C2148       C  0.88338488  0.38967050  0.86737489    -0.14000
C2149       C  0.86914502  0.37531681  0.86671771     0.08200
C2150       C  0.87038820  0.36067462  0.85269376    -0.14000
H2151       H  0.88623771  0.34890869  0.82883195     0.12200
H2152       H  0.90958216  0.40051956  0.85529758     0.12200
H2153       H  0.88273253  0.40100230  0.87820573     0.12200
H2154       H  0.85953072  0.34944326  0.85202069     0.12200
C2155       C  0.88596464  0.69229467  0.91402776    -0.14000
C2156       C  0.90126399  0.67936037  0.91067179     0.08200
C2157       C  0.91575303  0.67752579  0.92473498    -0.14000
C2158       C  0.91427698  0.68739722  0.94240447    -0.14000
C2159       C  0.89852020  0.69965443  0.94617202     0.08200
C2160       C  0.88476185  0.70259780  0.93151666    -0.14000
H2161       H  0.87453129  0.69377691  0.90343845     0.12200
H2162       H  0.92754656  0.66747511  0.92255949     0.12200
H2163       H  0.92511885  0.68492526  0.95342813     0.12200
H2164       H  0.87241425  0.71184358  0.93407867     0.12200
C2165       C  0.79082952  0.43040032  0.88284921    -0.14000
C2166       C  0.79459142  0.44445020  0.89706882     0.08200
C2167       C  0.80706583  0.43975385  0.91244555    -0.14000
C2168       C  0.81623591  0.42168483  0.91316424    -0.14000
C2169       C  0.81342414  0.40814289  0.89830176     0.08200
C2170       C  0.80040328  0.41250141  0.88330551    -0.14000
H2171       H  0.78146043  0.43371261  0.87073720     0.12200
H2172       H  0.81021062  0.45033287  0.92358516     0.12200
H2173       H  0.82639509  0.41871015  0.92471131     0.12200
H2174       H  0.79823096  0.40232948  0.87156515     0.12200
C2175       C  0.85994537  0.58844438  0.87823138    -0.14000
C2176       C  0.84048817  0.59402790  0.87887731     0.08200
C2177       C  0.83593070  0.61381769  0.88014201    -0.14000
C2178       C  0.85054185  0.62774250  0.88081181    -0.14000
C2179       C  0.86998325  0.62217202  0.87982429     0.08200
C2180       C  0.87454391  0.60239262  0.87850878    -0.14000
H2181       H  0.86387810  0.57331152  0.87715595     0.12200
H2182       H  0.82106377  0.61853147  0.88081774     0.12200
H2183       H  0.84665680  0.64290359  0.88174755     0.12200
H2184       H  0.88943474  0.59772998  0.87784848     0.12200
C2185       C  0.07321393  0.59491766  0.71304923    -0.14000
C2186       C  0.05603054  0.58964579  0.70352987     0.08200
C2187       C  0.05736954  0.58178421  0.68473792    -0.14000
C2188       C  0.07505261  0.58083678  0.67511108    -0.14000
C2189       C  0.09194326  0.58730095  0.68413520     0.08200
C2190       C  0.09102842  0.59373700  0.70341781    -0.14000
H2191       H  0.07284101  0.60089899  0.72752826     0.12200
H2192       H  0.04465891  0.57704584  0.67702718     0.12200
H2193       H  0.07544266  0.57581746  0.66024465     0.12200
H2194       H  0.10390135  0.59894763  0.71059229     0.12200
C2195       C  0.94087244  0.66367633  0.81960277    -0.14000
C2196       C  0.95091153  0.64651944  0.81526190     0.08200
C2197       C  0.95074939  0.63134739  0.82880665    -0.14000
C2198       C  0.93974410  0.63286745  0.84577782    -0.14000
C2199       C  0.92916059  0.64978663  0.84976193     0.08200
C2200       C  0.93029074  0.66538186  0.83679536    -0.14000
H2201       H  0.94077036  0.67558813  0.80940008     0.12200
H2202       H  0.95818623  0.61790373  0.82574123     0.12200
H2203       H  0.93895045  0.62059155  0.85550754     0.12200
H2204       H  0.92207478  0.67845984  0.83942569     0.12200
C2205       C  0.90634019  0.61487086  0.65385689    -0.14000
C2206       C  0.90894288  0.62988114  0.66737894     0.08200
C2207       C  0.89642904  0.64589863  0.66672199    -0.14000
C2208       C  0.88192238  0.64704496  0.65265115    -0.14000
C2209       C  0.87942904  0.63208608  0.63908469     0.08200
C2210       C  0.89168577  0.61591274  0.63995107    -0.14000
H2211       H  0.91556229  0.60223436  0.65403160     0.12200
H2212       H  0.89803565  0.65774815  0.67684693     0.12200
H2213       H  0.87257866  0.65961018  0.65240707     0.12200
H2214       H  0.89016715  0.60422487  0.62960360     0.12200
C2215       C  0.89398281  0.31250364  0.58915084    -0.14000
C2216       C  0.90700250  0.32784683  0.59171931     0.08200
C2217       C  0.91916422  0.33303234  0.57637623    -0.14000
C2218       C  0.91771437  0.32369040  0.55844074    -0.14000
C2219       C  0.90418807  0.30882323  0.55552508     0.08200
C2220       C  0.89276057  0.30288036  0.57126155    -0.14000
H2221       H  0.88420482  0.30855620  0.60071336     0.12200
H2222       H  0.92906147  0.34504286  0.57796791     0.12200
H2223       H  0.92679458  0.32851143  0.54664296     0.12200
H2224       H  0.88210093  0.29159910  0.56941605     0.12200
C2225       C  0.94376902  0.36729175  0.66069801    -0.14000
C2226       C  0.93074095  0.35229433  0.65654625     0.08200
C2227       C  0.92782917  0.33771440  0.67037469    -0.14000
C2228       C  0.93687182  0.33875719  0.68851039    -0.14000
C2229       C  0.94926472  0.35422639  0.69304394     0.08200
C2230       C  0.95316806  0.36810372  0.67868322    -0.14000
H2231       H  0.94605473  0.37879722  0.65029187     0.12200
H2232       H  0.91767452  0.32615289  0.66756505     0.12200
H2233       H  0.93367979  0.32778459  0.69923921     0.12200
H2234       H  0.96253081  0.38024434  0.68176704     0.12200
C2235       C  0.66294507  0.45185726  0.64446790    -0.14000
C2236       C  0.66173907  0.43418134  0.65447072     0.08200
C2237       C  0.67848423  0.42631110  0.66264673    -0.14000
C2238       C  0.69628309  0.43542778  0.66014476    -0.14000
C2239       C  0.69781482  0.45259915  0.64925922     0.08200
C2240       C  0.68083221  0.46108979  0.64200459    -0.14000
H2241       H  0.65023681  0.45794236  0.63767382     0.12200
H2242       H  0.67792192  0.41253830  0.67013293     0.12200
H2243       H  0.70896486  0.42861120  0.66622753     0.12200
H2244       H  0.68149784  0.47423608  0.63349937     0.12200
C2245       C  0.79916001  0.58151498  0.61246828    -0.14000
C2246       C  0.80701985  0.56548750  0.60267776     0.08200
C2247       C  0.82365090  0.56826580  0.59133306    -0.14000
C2248       C  0.83301065  0.58618386  0.59094681    -0.14000
C2249       C  0.82587919  0.60177771  0.60174959     0.08200
C2250       C  0.80861062  0.59949299  0.61211072    -0.14000
H2251       H  0.78643032  0.57987476  0.62136617     0.12200
H2252       H  0.82992683  0.55635264  0.58333384     0.12200
H2253       H  0.84641045  0.58759629  0.58303597     0.12200
H2254       H  0.80305609  0.61130132  0.62079682     0.12200
C2255       C  0.86695537  0.41877253  0.62404577    -0.14000
C2256       C  0.84738261  0.41391425  0.62207960     0.08200
C2257       C  0.84227500  0.39429781  0.62042588    -0.14000
C2258       C  0.85641665  0.37986377  0.62064692    -0.14000
C2259       C  0.87592497  0.38471070  0.62288795     0.08200
C2260       C  0.88107760  0.40428445  0.62465275    -0.14000
H2261       H  0.87133245  0.43374023  0.62546451     0.12200
H2262       H  0.82734934  0.39008988  0.61874240     0.12200
H2263       H  0.85210587  0.36485651  0.61932135     0.12200
H2264       H  0.89605671  0.40835526  0.62629456     0.12200
C2265       C  0.65633671  0.56101646  0.84879037    -0.14000
C2266       C  0.65572119  0.57910788  0.83951139     0.08200
C2267       C  0.67274348  0.58679226  0.83182692    -0.14000
C2268       C  0.69027102  0.57708931  0.83422173    -0.14000
C2269       C  0.69125462  0.55958080  0.84463845     0.08200
C2270       C  0.67396268  0.55127898  0.85128323    -0.14000
H2271       H  0.64338384  0.55501211  0.85512870     0.12200
H2272       H  0.67260236  0.60081379  0.82479557     0.12200
H2273       H  0.70317313  0.58375661  0.82852063     0.12200
H2274       H  0.67416251  0.53785684  0.85936790     0.12200
C2275       C  0.61133941  0.69872339  0.06602275    -0.14000
C2276       C  0.59761626  0.69696518  0.05115919     0.08200
C2277       C  0.58175935  0.68462104  0.05397530    -0.14000
C2278       C  0.57997743  0.67374670  0.07100884    -0.14000
C2279       C  0.59425901  0.67464838  0.08535954     0.08200
C2280       C  0.60982467  0.68742814  0.08285749    -0.14000
H2281       H  0.62380446  0.70794437  0.06413181     0.12200
H2282       H  0.57099226  0.68298769  0.04272831     0.12200
H2283       H  0.56802964  0.66378366  0.07249181     0.12200
H2284       H  0.62114339  0.68813912  0.09364725     0.12200
C2285       C  0.60808100  0.64926375  0.90075733    -0.14000
C2286       C  0.62323681  0.66271863  0.90182333     0.08200
C2287       C  0.63824173  0.66154633  0.88818684    -0.14000
C2288       C  0.63818123  0.64710304  0.87396174    -0.14000
C2289       C  0.62297450  0.63375761  0.87291372     0.08200
C2290       C  0.60789916  0.63501995  0.88638842    -0.14000
H2291       H  0.59621085  0.64981301  0.91089425     0.12200
H2292       H  0.65018045  0.67159456  0.88864799     0.12200
H2293       H  0.64991468  0.64645665  0.86364220     0.12200
H2294       H  0.59606980  0.62481543  0.88592426     0.12200
C2295       C  0.36797551  0.87934177  0.89124648    -0.14000
C2296       C  0.37025579  0.87320962  0.87196523     0.08200
C2297       C  0.37207933  0.85332489  0.86812224    -0.14000
C2298       C  0.37140833  0.83982955  0.88325532    -0.14000
C2299       C  0.36934745  0.84599067  0.90256113     0.08200
C2300       C  0.36773684  0.86588875  0.90640604    -0.14000
H2301       H  0.36663751  0.89460044  0.89460184     0.12200
H2302       H  0.37375927  0.84822683  0.85337989     0.12200
H2303       H  0.37279265  0.82458593  0.87987842     0.12200
H2304       H  0.36600862  0.87103696  0.92111994     0.12200
C2305       C  0.30205271  0.59707192  0.88217770    -0.14000
C2306       C  0.31638021  0.59986609  0.89633598     0.08200
C2307       C  0.32114975  0.58449288  0.90867732    -0.14000
C2308       C  0.31253352  0.56635298  0.90630279    -0.14000
C2309       C  0.29873152  0.56322012  0.89169595     0.08200
C2310       C  0.29306298  0.57894765  0.88006746    -0.14000
H2311       H  0.29843194  0.60867009  0.87225796     0.12200
H2312       H  0.33239045  0.58622439  0.91943591     0.12200
H2313       H  0.31712472  0.55455782  0.91555791     0.12200
H2314       H  0.28259291  0.57692236  0.86860722     0.12200
C2315       C  0.32832964  0.67849256  0.92083823    -0.14000
C2316       C  0.34046528  0.66282303  0.92501161     0.08200
C2317       C  0.35375322  0.66448796  0.94031680    -0.14000
C2318       C  0.35539378  0.68189108  0.95075926    -0.14000
C2319       C  0.34411703  0.69803638  0.94567222     0.08200
C2320       C  0.33017522  0.69591738  0.93099731    -0.14000
H2321       H  0.31822041  0.67762996  0.90890249     0.12200
H2322       H  0.36349007  0.65265022  0.94352971     0.12200
H2323       H  0.36633372  0.68311235  0.96188268     0.12200
H2324       H  0.32115687  0.70802579  0.92683282     0.12200
C2325       C  0.42755675  0.66244191  0.68496100    -0.14000
C2326       C  0.44386707  0.65070717  0.68815350     0.08200
C2327       C  0.45176976  0.64058884  0.67235617    -0.14000
C2328       C  0.44273945  0.64114347  0.65414840    -0.14000
C2329       C  0.42587973  0.65206951  0.65136470     0.08200
C2330       C  0.41863942  0.66306662  0.66677911    -0.14000
H2331       H  0.42122601  0.67063470  0.69671424     0.12200
H2332       H  0.46421975  0.63134312  0.67432648     0.12200
H2333       H  0.44829569  0.63222084  0.64251576     0.12200
H2334       H  0.40547104  0.67131732  0.66501101     0.12200
C2335       C  0.55313317  0.59510534  0.82098771    -0.14000
C2336       C  0.55163507  0.60347079  0.80242937     0.08200
C2337       C  0.56873187  0.60830856  0.79258452    -0.14000
C2338       C  0.58674038  0.60609877  0.80169264    -0.14000
C2339       C  0.58791308  0.59896173  0.82071970     0.08200
C2340       C  0.57101180  0.59304861  0.83005895    -0.14000
H2341       H  0.54043050  0.59073752  0.82891763     0.12200
H2342       H  0.56816378  0.61474676  0.77830223     0.12200
H2343       H  0.59961605  0.61104107  0.79435657     0.12200
H2344       H  0.57158733  0.58766026  0.84479218     0.12200
C2345       C  0.40659093  0.63677874  0.85907884    -0.14000
C2346       C  0.40220235  0.63437465  0.83934854     0.08200
C2347       C  0.38289275  0.63177214  0.83382131    -0.14000
C2348       C  0.36829052  0.63131002  0.84776029    -0.14000
C2349       C  0.37265657  0.63377470  0.86748169     0.08200
C2350       C  0.39193938  0.63665316  0.87299445    -0.14000
H2351       H  0.42133221  0.63892528  0.86374448     0.12200
H2352       H  0.37909127  0.62973867  0.81874421     0.12200
H2353       H  0.35353383  0.62918461  0.84311714     0.12200
H2354       H  0.39570754  0.63846301  0.88811700     0.12200
C2355       C  0.66424332  0.83315753  0.92311517    -0.14000
C2356       C  0.64870051  0.84616038  0.92368213     0.08200
C2357       C  0.63280902  0.84185152  0.93553994    -0.14000
C2358       C  0.63218297  0.82454378  0.94614232    -0.14000
C2359       C  0.64718156  0.81097237  0.94459814     0.08200
C2360       C  0.66337742  0.81560698  0.93327914    -0.14000
H2361       H  0.67652540  0.83605477  0.91389098     0.12200
H2362       H  0.62057970  0.85159405  0.93603507     0.12200
H2363       H  0.61945363  0.82123803  0.95457464     0.12200
H2364       H  0.67511038  0.80535684  0.93182897     0.12200
C2365       C  0.42447510  0.88538363  0.79137721    -0.14000
C2366       C  0.43918745  0.89884731  0.79507045     0.08200
C2367       C  0.43546006  0.91429260  0.80780189    -0.14000
C2368       C  0.41767531  0.91585870  0.81723894    -0.14000
C2369       C  0.40342392  0.90175201  0.81449852     0.08200
C2370       C  0.40683001  0.88665212  0.80126821    -0.14000
H2371       H  0.42705269  0.87324247  0.78179588     0.12200
H2372       H  0.44656508  0.92485313  0.81090407     0.12200
H2373       H  0.41544122  0.92747520  0.82753988     0.12200
H2374       H  0.39608631  0.87549619  0.79912280     0.12200
C2375       C  0.58388509  0.87795992  0.85711103    -0.14000
C2376       C  0.58886691  0.87654410  0.83741001     0.08200
C2377       C  0.60846478  0.87533478  0.83236064    -0.14000
C2378       C  0.62274580  0.87569214  0.84665964    -0.14000
C2379       C  0.61770620  0.87689469  0.86629109     0.08200
C2380       C  0.59817961  0.87794100  0.87143109    -0.14000
H2381       H  0.56894111  0.87880691  0.86149938     0.12200
H2382       H  0.61282358  0.87440161  0.81734006     0.12200
H2383       H  0.63774982  0.87484324  0.84242722     0.12200
H2384       H  0.59403009  0.87894663  0.88652496     0.12200
C2385       C  0.57800395  0.84292542  0.66507751    -0.14000
C2386       C  0.57388167  0.85569457  0.64986104     0.08200
C2387       C  0.55911915  0.86944604  0.65223296    -0.14000
C2388       C  0.54895440  0.87068244  0.66980062    -0.14000
C2389       C  0.55381612  0.85854703  0.68542038     0.08200
C2390       C  0.56817620  0.84441377  0.68270292    -0.14000
H2391       H  0.58954394  0.83244926  0.66365308     0.12200
H2392       H  0.55597848  0.87966943  0.64075581     0.12200
H2393       H  0.53808689  0.88180648  0.67153138     0.12200
H2394       H  0.57217287  0.83479291  0.69442602     0.12200
C2395       C  0.66455727  0.89601569  0.61833890    -0.14000
C2396       C  0.65932182  0.91557272  0.62051389     0.08200
C2397       C  0.63968237  0.92037128  0.62173708    -0.14000
C2398       C  0.62559731  0.90594446  0.62109643    -0.14000
C2399       C  0.63080321  0.88642681  0.61888246     0.08200
C2400       C  0.65040912  0.88158981  0.61733116    -0.14000
H2401       H  0.67956738  0.89188158  0.61723868     0.12200
H2402       H  0.63517447  0.93526289  0.62356485     0.12200
H2403       H  0.61057063  0.91003984  0.62223245     0.12200
H2404       H  0.65477426  0.86661930  0.61570789     0.12200
C2405       C  0.81457079  0.07132274  0.40877342    -0.14000
C2406       C  0.80326195  0.06682706  0.39247717     0.08200
C2407       C  0.80067998  0.08096309  0.37807806    -0.14000
C2408       C  0.81029793  0.09878063  0.37936808    -0.14000
C2409       C  0.82215098  0.10298296  0.39537044     0.08200
C2410       C  0.82371556  0.08932105  0.41032961    -0.14000
H2411       H  0.81677352  0.06066387  0.42007123     0.12200
H2412       H  0.79218895  0.07779032  0.36529775     0.12200
H2413       H  0.80906585  0.10902701  0.36755068     0.12200
H2414       H  0.83298106  0.09211082  0.42265113     0.12200
C2415       C  0.83802720  0.89438985  0.38123940    -0.14000
C2416       C  0.84304385  0.91405335  0.37980622     0.08200
C2417       C  0.86258924  0.91902536  0.37799741    -0.14000
C2418       C  0.87681040  0.90464937  0.37763216    -0.14000
C2419       C  0.87180410  0.88504205  0.37944017     0.08200
C2420       C  0.85227719  0.88004458  0.38123005    -0.14000
H2421       H  0.82310680  0.89009018  0.38271156     0.12200
H2422       H  0.86689719  0.93401926  0.37666280     0.12200
H2423       H  0.89177859  0.90886438  0.37632314     0.12200
H2424       H  0.84805266  0.86501127  0.38253599     0.12200
C2425       C  0.66036923  0.95224330  0.35074205    -0.14000
C2426       C  0.65960496  0.93437004  0.34106578     0.08200
C2427       C  0.67658133  0.92649507  0.33344424    -0.14000
C2428       C  0.69421124  0.93579276  0.33625796    -0.14000
C2429       C  0.69529741  0.95313642  0.34689342     0.08200
C2430       C  0.67810497  0.96165406  0.35353090    -0.14000
H2431       H  0.64743140  0.95834687  0.35704347     0.12200
H2432       H  0.67630474  0.91261295  0.32614485     0.12200
H2433       H  0.70711874  0.92898736  0.33067115     0.12200
H2434       H  0.67849068  0.97493533  0.36184498     0.12200
C2435       C  0.63244063  0.68313826  0.44179325    -0.14000
C2436       C  0.64506786  0.69844039  0.43751324     0.08200
C2437       C  0.65954603  0.69543339  0.42355350    -0.14000
C2438       C  0.66086713  0.67785080  0.41350671    -0.14000
C2439       C  0.64754229  0.66300794  0.41696217     0.08200
C2440       C  0.63348956  0.66567653  0.43138963    -0.14000
H2441       H  0.62103753  0.68509651  0.45231184     0.12200
H2442       H  0.66951150  0.70694118  0.41997587     0.12200
H2443       H  0.67161577  0.67623637  0.40224879     0.12200
H2444       H  0.62286647  0.65452006  0.43405359     0.12200
C2445       C  0.61344241  0.80431777  0.56671511    -0.14000
C2446       C  0.60223539  0.81002732  0.55073028     0.08200
C2447       C  0.58886574  0.82517195  0.55311358    -0.14000
C2448       C  0.58740093  0.83504555  0.57075493    -0.14000
C2449       C  0.59944164  0.83015917  0.58631332     0.08200
C2450       C  0.61224034  0.81450012  0.58430964    -0.14000
H2451       H  0.62398129  0.79284459  0.56523118     0.12200
H2452       H  0.57999654  0.82984471  0.54106722     0.12200
H2453       H  0.57760409  0.84720907  0.57193154     0.12200
H2454       H  0.62183526  0.81068843  0.59609261     0.12200
C2455       C  0.62447496  0.84525257  0.38081934    -0.14000
C2456       C  0.62575242  0.85017385  0.40054894     0.08200
C2457       C  0.62680937  0.86981669  0.40575306    -0.14000
C2458       C  0.62696480  0.88420543  0.39151839    -0.14000
C2459       C  0.62568019  0.87924680  0.37185368     0.08200
C2460       C  0.62424638  0.85968747  0.36660208    -0.14000
H2461       H  0.62346456  0.83026595  0.37636468     0.12200
H2462       H  0.62790715  0.87407471  0.42080457     0.12200
H2463       H  0.62800483  0.89924332  0.39583949     0.12200
H2464       H  0.62327822  0.85559506  0.35148236     0.12200
C2465       C  0.82468224  0.92946059  0.66908831    -0.14000
C2466       C  0.84162158  0.93835524  0.66265833     0.08200
C2467       C  0.84065487  0.95731518  0.65529882    -0.14000
C2468       C  0.82274414  0.96667823  0.65317782    -0.14000
C2469       C  0.80558200  0.95714137  0.65834391     0.08200
C2470       C  0.80693121  0.93878713  0.66713687    -0.14000
H2471       H  0.82509755  0.91484025  0.67475897     0.12200
H2472       H  0.85357337  0.96435098  0.65005003     0.12200
H2473       H  0.82225400  0.98081534  0.64643155     0.12200
H2474       H  0.79414847  0.93116407  0.67181307     0.12200
C2475       C  0.92728927  0.92482737  0.67127883    -0.14000
C2476       C  0.91004214  0.92012009  0.68067518     0.08200
C2477       C  0.91059816  0.91469701  0.70026993    -0.14000
C2478       C  0.92832029  0.91298150  0.70998855    -0.14000
C2479       C  0.94577266  0.91672061  0.70025874     0.08200
C2480       C  0.94489266  0.92333905  0.68096702    -0.14000
H2481       H  0.92717594  0.92893910  0.65612868     0.12200
H2482       H  0.89744237  0.91074629  0.70770813     0.12200
H2483       H  0.92832947  0.90796780  0.72483270     0.12200
H2484       H  0.95781492  0.92676641  0.67295910     0.12200
C2485       C  0.84591600  0.70553338  0.58745562    -0.14000
C2486       C  0.84976308  0.70641459  0.56741373     0.08200
C2487       C  0.85132694  0.68884105  0.55715425    -0.14000
C2488       C  0.84985529  0.67097264  0.56685922    -0.14000
C2489       C  0.84698753  0.67035576  0.58701287     0.08200
C2490       C  0.84469492  0.68781025  0.59708725    -0.14000
H2491       H  0.84434581  0.71849571  0.59604903     0.12200
H2492       H  0.85414095  0.68884601  0.54174107     0.12200
H2493       H  0.85180212  0.65767236  0.55878807     0.12200
H2494       H  0.84240454  0.68772775  0.61261602     0.12200
C2495       C  0.91489501  0.83304320  0.42809025    -0.14000
C2496       C  0.90209319  0.82897688  0.41292729     0.08200
C2497       C  0.88777134  0.81487604  0.41572003    -0.14000
C2498       C  0.88582752  0.80553770  0.43369776    -0.14000
C2499       C  0.89783009  0.81059793  0.44931261     0.08200
C2500       C  0.91271232  0.82405028  0.44612554    -0.14000
H2501       H  0.92584785  0.84406286  0.42633177     0.12200
H2502       H  0.87757090  0.81174853  0.40425859     0.12200
H2503       H  0.87418593  0.79532146  0.43573372     0.12200
H2504       H  0.92229291  0.82813314  0.45781658     0.12200
C2505       C  0.86076506  0.85715827  0.61274299    -0.14000
C2506       C  0.87590555  0.85605192  0.59925278     0.08200
C2507       C  0.89094371  0.86959188  0.60037004    -0.14000
C2508       C  0.89092760  0.88382765  0.61479814    -0.14000
C2509       C  0.87569431  0.88502518  0.62815107     0.08200
C2510       C  0.86057755  0.87160200  0.62693843    -0.14000
H2511       H  0.84890286  0.84701606  0.61218208     0.12200
H2512       H  0.90285807  0.86901601  0.59027077     0.12200
H2513       H  0.90270832  0.89407832  0.61539279     0.12200
H2514       H  0.84873564  0.87215238  0.63713862     0.12200
C2515       C  0.85545745  0.84248242  0.06104852    -0.14000
C2516       C  0.84416298  0.84379138  0.07788368     0.08200
C2517       C  0.83416612  0.82740475  0.08429243    -0.14000
C2518       C  0.83607032  0.80975118  0.07458611    -0.14000
C2519       C  0.84807187  0.80804887  0.05824113     0.08200
C2520       C  0.85726501  0.82476476  0.05117685    -0.14000
H2521       H  0.86354675  0.85492357  0.05608120     0.12200
H2522       H  0.82558327  0.82806892  0.09738118     0.12200
H2523       H  0.82858445  0.79725177  0.08028744     0.12200
H2524       H  0.86669050  0.82391276  0.03871681     0.12200
C2525       C  0.93480675  0.84171669  0.31713311    -0.14000
C2526       C  0.94852767  0.85629301  0.31376539     0.08200
C2527       C  0.95351966  0.86876045  0.32906240    -0.14000
C2528       C  0.94375273  0.86765567  0.34685171    -0.14000
C2529       C  0.92930869  0.85370303  0.34974654     0.08200
C2530       C  0.92539010  0.84036258  0.33498083    -0.14000
H2531       H  0.93076205  0.83183728  0.30565071     0.12200
H2532       H  0.96393811  0.88019879  0.32682968     0.12200
H2533       H  0.94677946  0.87825589  0.35800383     0.12200
H2534       H  0.91412709  0.82967990  0.33683303     0.12200
C2535       C  0.90825811  0.87494955  0.14370034    -0.14000
C2536       C  0.90332373  0.87643954  0.16339115     0.08200
C2537       C  0.88376238  0.87780522  0.16849940    -0.14000
C2538       C  0.86945679  0.87791118  0.15416149    -0.14000
C2539       C  0.87444952  0.87621111  0.13451697     0.08200
C2540       C  0.89396105  0.87465089  0.12943428    -0.14000
H2541       H  0.92317933  0.87374087  0.13930481     0.12200
H2542       H  0.87953741  0.87910100  0.18353911     0.12200
H2543       H  0.85447733  0.87907712  0.15839996     0.12200
H2544       H  0.89814230  0.87341955  0.11436633     0.12200
C2545       C  0.92862033  0.16606987  0.16322479    -0.14000
C2546       C  0.92996737  0.15125285  0.14941845     0.08200
C2547       C  0.94214631  0.13537701  0.15315346    -0.14000
C2548       C  0.95220164  0.13401095  0.17077121    -0.14000
C2549       C  0.94972738  0.14820824  0.18512599     0.08200
C2550       C  0.93821418  0.16445169  0.18098263    -0.14000
H2551       H  0.91908906  0.17826412  0.16080553     0.12200
H2552       H  0.94318355  0.12365248  0.14278585     0.12200
H2553       H  0.96083512  0.12126794  0.17368064     0.12200
H2554       H  0.93607493  0.17559606  0.19180910     0.12200
C2555       C  0.81185072  0.93962243  0.08751076    -0.14000
C2556       C  0.79910041  0.94390895  0.10275483     0.08200
C2557       C  0.79555732  0.92971404  0.11687194    -0.14000
C2558       C  0.80561106  0.91208785  0.11646919    -0.14000
C2559       C  0.81890104  0.90814702  0.10162083     0.08200
C2560       C  0.82149496  0.92181161  0.08682850    -0.14000
H2561       H  0.81484066  0.95033959  0.07646297     0.12200
H2562       H  0.78598188  0.93273367  0.12888064     0.12200
H2563       H  0.80358102  0.90180828  0.12813808     0.12200
H2564       H  0.83184867  0.91916518  0.07539219     0.12200
C2565       C  0.86195811  0.08793261  0.12174527    -0.14000
C2566       C  0.84244590  0.09337886  0.12234188     0.08200
C2567       C  0.83769656  0.11315248  0.12183653    -0.14000
C2568       C  0.85213378  0.12718169  0.12057664    -0.14000
C2569       C  0.87161865  0.12174007  0.12013616     0.08200
C2570       C  0.87641706  0.10199468  0.12082168    -0.14000
H2571       H  0.86607087  0.07282015  0.12223971     0.12200
H2572       H  0.82280308  0.11780541  0.12212542     0.12200
H2573       H  0.84809815  0.14232901  0.12024124     0.12200
H2574       H  0.89135917  0.09746145  0.12047645     0.12200
C2575       C  0.63038014  0.16767422  0.56752524    -0.14000
C2576       C  0.64531703  0.16526517  0.58108301     0.08200
C2577       C  0.65921495  0.17984968  0.58299526    -0.14000
C2578       C  0.65767544  0.19697967  0.57225378    -0.14000
C2579       C  0.64239412  0.19973752  0.55911550     0.08200
C2580       C  0.62908749  0.18465766  0.55641195    -0.14000
H2581       H  0.61940332  0.15665021  0.56598469     0.12200
H2582       H  0.67071890  0.17837598  0.59351176     0.12200
H2583       H  0.66818280  0.20831916  0.57459732     0.12200
H2584       H  0.61708356  0.18644164  0.54654054     0.12200
C2585       C  0.68676752  0.10026880  0.62311276    -0.14000
C2586       C  0.67367238  0.10349207  0.60789644     0.08200
C2587       C  0.67195353  0.08953088  0.59324744    -0.14000
C2588       C  0.68226175  0.07212217  0.59441296    -0.14000
C2589       C  0.69482642  0.06852623  0.61001621     0.08200
C2590       C  0.69749482  0.08304912  0.62400387    -0.14000
H2591       H  0.68813521  0.11077746  0.63467575     0.12200
H2592       H  0.66176982  0.09161053  0.58152524     0.12200
H2593       H  0.67994861  0.06117013  0.58342844     0.12200
H2594       H  0.70692499  0.08057678  0.63626531     0.12200
C2595       C  0.42132937  0.09665263  0.70934161    -0.14000
C2596       C  0.43883914  0.09246722  0.69990726     0.08200
C2597       C  0.43809569  0.08510847  0.68088665    -0.14000
C2598       C  0.42058237  0.08349305  0.67103837    -0.14000
C2599       C  0.40326546  0.08886733  0.67998158     0.08200
C2600       C  0.40367242  0.09488363  0.69943610    -0.14000
H2601       H  0.42131178  0.10230418  0.72396787     0.12200
H2602       H  0.45111752  0.08124441  0.67322560     0.12200
H2603       H  0.42063617  0.07893160  0.65601096     0.12200
H2604       H  0.39050480  0.09939855  0.70652729     0.12200
C2605       C  0.58192744  0.13306416  0.64767421    -0.14000
C2606       C  0.58676317  0.13125026  0.66737548     0.08200
C2607       C  0.60631867  0.13057981  0.67263847    -0.14000
C2608       C  0.62072012  0.13134321  0.65844496    -0.14000
C2609       C  0.61585092  0.13322028  0.63876109     0.08200
C2610       C  0.59631794  0.13422611  0.63353991    -0.14000
H2611       H  0.56699526  0.13375440  0.64317767     0.12200
H2612       H  0.61048005  0.12906825  0.68768428     0.12200
H2613       H  0.63568833  0.13061211  0.66283937     0.12200
H2614       H  0.59218654  0.13555741  0.61846114     0.12200
C2615       C  0.55919495  0.16124008  0.84125401    -0.14000
C2616       C  0.56248842  0.14488097  0.85288546     0.08200
C2617       C  0.55397710  0.12717880  0.84750310    -0.14000
C2618       C  0.54320791  0.12567082  0.83035461    -0.14000
C2619       C  0.54116932  0.14171785  0.81805761     0.08200
C2620       C  0.54888591  0.15959864  0.82386163    -0.14000
H2621       H  0.56568107  0.17500323  0.84495896     0.12200
H2622       H  0.55627136  0.11434724  0.85622655     0.12200
H2623       H  0.53760276  0.11168768  0.82605658     0.12200
H2624       H  0.54759527  0.17213185  0.81451596     0.12200
C2625       C  0.69514798  0.93207613  0.87960393    -0.14000
C2626       C  0.69454708  0.94469192  0.89554959     0.08200
C2627       C  0.68445482  0.93896522  0.91224878    -0.14000
C2628       C  0.67470641  0.92121565  0.91281070    -0.14000
C2629       C  0.67442651  0.90909001  0.89649334     0.08200
C2630       C  0.68494954  0.91456719  0.87997130    -0.14000
H2631       H  0.70265804  0.93621213  0.86649717     0.12200
H2632       H  0.68378403  0.94843035  0.92473948     0.12200
H2633       H  0.66651103  0.91743915  0.92561088     0.12200
H2634       H  0.68481203  0.90552176  0.86715354     0.12200
C2635       C  0.64035887  0.09386645  0.90041447    -0.14000
C2636       C  0.65377615  0.09347376  0.88514986     0.08200
C2637       C  0.65124686  0.10629311  0.86950951    -0.14000
C2638       C  0.63555890  0.11905051  0.86904690    -0.14000
C2639       C  0.62233181  0.11953139  0.88439182     0.08200
C2640       C  0.62490392  0.10693298  0.90013498    -0.14000
H2641       H  0.64195307  0.08426505  0.91270918     0.12200
H2642       H  0.66120778  0.10626036  0.85745346     0.12200
H2643       H  0.63385486  0.12873139  0.85681596     0.12200
H2644       H  0.61484793  0.10712267  0.91212787     0.12200
C2645       C  0.67228308  0.08191268  0.16644026    -0.14000
C2646       C  0.65615515  0.07595006  0.15579387     0.08200
C2647       C  0.65779029  0.05988268  0.14342680    -0.14000
C2648       C  0.67553430  0.05040109  0.14113874    -0.14000
C2649       C  0.69200207  0.05711206  0.15090398     0.08200
C2650       C  0.69003941  0.07259733  0.16401522    -0.14000
H2651       H  0.67139718  0.09450230  0.17575588     0.12200
H2652       H  0.64559590  0.05538080  0.13472767     0.12200
H2653       H  0.67662137  0.03863292  0.13083646     0.12200
H2654       H  0.70242120  0.07798562  0.17188592     0.12200
C2655       C  0.57194602  0.09268292  0.16547761    -0.14000
C2656       C  0.58907101  0.09723052  0.17516846     0.08200
C2657       C  0.58829422  0.10189171  0.19498502    -0.14000
C2658       C  0.57042922  0.10306221  0.20461106    -0.14000
C2659       C  0.55310768  0.09947776  0.19455835     0.08200
C2660       C  0.55428000  0.09357945  0.17504331    -0.14000
H2661       H  0.57220629  0.08897760  0.15022323     0.12200
H2662       H  0.60136831  0.10556625  0.20272069     0.12200
H2663       H  0.57016445  0.10750348  0.21964205     0.12200
H2664       H  0.54151845  0.09012262  0.16677838     0.12200
C2665       C  0.64037165  0.32312373  0.05146225    -0.14000
C2666       C  0.65318847  0.30767212  0.05465599     0.08200
C2667       C  0.66823999  0.31015453  0.06810966    -0.14000
C2668       C  0.66983901  0.32728442  0.07886130    -0.14000
C2669       C  0.65623779  0.34214068  0.07660852     0.08200
C2670       C  0.64172354  0.34010346  0.06255205    -0.14000
H2671       H  0.62857320  0.32161166  0.04130666     0.12200
H2672       H  0.67840597  0.29855578  0.07079798     0.12200
H2673       H  0.68102291  0.32848261  0.08975137     0.12200
H2674       H  0.63097864  0.35134216  0.06073220     0.12200
C2675       C  0.60607521  0.20192552  0.93145303    -0.14000
C2676       C  0.59259133  0.20026678  0.94652762     0.08200
C2677       C  0.57683531  0.18767630  0.94409487    -0.14000
C2678       C  0.57517575  0.17618448  0.92744563    -0.14000
C2679       C  0.58942953  0.17680596  0.91307927     0.08200
C2680       C  0.60464353  0.19009600  0.91499185    -0.14000
H2681       H  0.61842824  0.21136235  0.93297445     0.12200
H2682       H  0.56618952  0.18615532  0.95545590     0.12200
H2683       H  0.56342797  0.16593333  0.92635144     0.12200
H2684       H  0.61586638  0.19069879  0.90411275     0.12200
C2685       C  0.60861360  0.14662751  0.09420895    -0.14000
C2686       C  0.62481023  0.15860358  0.09180657     0.08200
C2687       C  0.64070191  0.15603609  0.10418266    -0.14000
C2688       C  0.64035883  0.14191172  0.11869777    -0.14000
C2689       C  0.62404078  0.13017990  0.12130034     0.08200
C2690       C  0.60818632  0.13265515  0.10887984    -0.14000
H2691       H  0.59609091  0.14826397  0.08500095     0.12200
H2692       H  0.65346503  0.16488236  0.10262627     0.12200
H2693       H  0.65275624  0.14035782  0.12811397     0.12200
H2694       H  0.59550958  0.12366114  0.11042679     0.12200
C2695       C  0.19127699  0.59802269  0.12203268    -0.14000
C2696       C  0.17836433  0.60138092  0.10665970     0.08200
C2697       C  0.17546088  0.58669658  0.09294457    -0.14000
C2698       C  0.18444865  0.56864748  0.09510096    -0.14000
C2699       C  0.19683899  0.56496912  0.11083524     0.08200
C2700       C  0.20068248  0.58007430  0.12392962    -0.14000
H2701       H  0.19346453  0.60902982  0.13298694     0.12200
H2702       H  0.16531385  0.58880771  0.08119710     0.12200
H2703       H  0.18124365  0.55732642  0.08474073     0.12200
H2704       H  0.21000687  0.57762866  0.13627775     0.12200
C2705       C  0.04691798  0.62866277  0.33127204    -0.14000
C2706       C  0.05093693  0.64203000  0.31647026     0.08200
C2707       C  0.06306017  0.65780188  0.32065008    -0.14000
C2708       C  0.07159548  0.65975893  0.33897025    -0.14000
C2709       C  0.06852821  0.64575956  0.35336299     0.08200
C2710       C  0.05588543  0.63034072  0.34944911    -0.14000
H2711       H  0.03778405  0.61628722  0.32841970     0.12200
H2712       H  0.06637149  0.66835021  0.30953688     0.12200
H2713       H  0.08157795  0.67153352  0.34150125     0.12200
H2714       H  0.05362225  0.61915177  0.36020083     0.12200
C2715       C  0.92640092  0.60855673  0.20914222    -0.14000
C2716       C  0.94275414  0.59895287  0.20188021     0.08200
C2717       C  0.94071519  0.58718021  0.18537357    -0.14000
C2718       C  0.92309629  0.58597848  0.17562357    -0.14000
C2719       C  0.90712411  0.59652793  0.18213393     0.08200
C2720       C  0.90874200  0.60751157  0.19919850    -0.14000
H2721       H  0.92756636  0.61783587  0.22172933     0.12200
H2722       H  0.95298899  0.57945677  0.17953003     0.12200
H2723       H  0.92220520  0.57765059  0.16235400     0.12200
H2724       H  0.89663950  0.61604391  0.20423584     0.12200
C2725       C  0.11107720  0.63330859  0.16885284    -0.14000
C2726       C  0.09157716  0.63200409  0.16343579     0.08200
C2727       C  0.08694177  0.63177660  0.14357139    -0.14000
C2728       C  0.10147711  0.63278004  0.12950780    -0.14000
C2729       C  0.12093196  0.63366757  0.13502686     0.08200
C2730       C  0.12558413  0.63396161  0.15480880    -0.14000
H2731       H  0.11522614  0.63339198  0.18396414     0.12200
H2732       H  0.07208983  0.63091398  0.13886633     0.12200
H2733       H  0.09757405  0.63243335  0.11431284     0.12200
H2734       H  0.14049959  0.63467321  0.15938568     0.12200
C2735       C  0.14071702  0.16669752  0.93545329    -0.14000
C2736       C  0.15697386  0.16423523  0.92356478     0.08200
C2737       C  0.17167695  0.17812093  0.92407507    -0.14000
C2738       C  0.16949396  0.19492914  0.93518076    -0.14000
C2739       C  0.15281085  0.19786927  0.94633630     0.08200
C2740       C  0.13877338  0.18327699  0.94698139    -0.14000
H2741       H  0.12914108  0.15619861  0.93511307     0.12200
H2742       H  0.18421331  0.17659015  0.91486033     0.12200
H2743       H  0.18048836  0.20602028  0.93446229     0.12200
H2744       H  0.12570722  0.18531427  0.95530733     0.12200
C2745       C  0.09262670  0.13588481  0.85760358    -0.14000
C2746       C  0.09629579  0.13400959  0.83768810     0.08200
C2747       C  0.11550672  0.13331237  0.83126724    -0.14000
C2748       C  0.13073038  0.13402585  0.84458440    -0.14000
C2749       C  0.12700374  0.13583261  0.86450975     0.08200
C2750       C  0.10781026  0.13693089  0.87084939    -0.14000
H2751       H  0.07799312  0.13663684  0.86296985     0.12200
H2752       H  0.11876257  0.13178366  0.81600619     0.12200
H2753       H  0.14541312  0.13322894  0.83933616     0.12200
H2754       H  0.10453618  0.13816444  0.88614136     0.12200
C2755       C  0.82370909  0.08427982  0.84011997    -0.14000
C2756       C  0.84034581  0.07430431  0.84590662     0.08200
C2757       C  0.83858309  0.05504555  0.85223420    -0.14000
C2758       C  0.82029105  0.04636879  0.85382959    -0.14000
C2759       C  0.80346713  0.05685601  0.84917207     0.08200
C2760       C  0.80556643  0.07565614  0.84158512    -0.14000
H2761       H  0.82469281  0.09917778  0.83531704     0.12200
H2762       H  0.85119958  0.04716040  0.85706416     0.12200
H2763       H  0.81930004  0.03186116  0.85965100     0.12200
H2764       H  0.79312705  0.08410780  0.83737564     0.12200
C2765       C  0.92742924  0.08818646  0.83976536    -0.14000
C2766       C  0.91001775  0.09104812  0.82984290     0.08200
C2767       C  0.91061793  0.09495646  0.80986191    -0.14000
C2768       C  0.92840605  0.09725131  0.80032103    -0.14000
C2769       C  0.94589746  0.09562631  0.81060727     0.08200
C2770       C  0.94507882  0.09029750  0.83029073    -0.14000
H2771       H  0.92736204  0.08515681  0.85516903     0.12200
H2772       H  0.89737590  0.09743310  0.80192513     0.12200
H2773       H  0.92838986  0.10118676  0.78514935     0.12200
H2774       H  0.95806289  0.08837539  0.83872994     0.12200
C2775       C  0.85047404  0.32385577  0.94788234    -0.14000
C2776       C  0.84074202  0.30712998  0.94160583     0.08200
C2777       C  0.82812403  0.30865631  0.92568353    -0.14000
C2778       C  0.82601549  0.32618303  0.91571275    -0.14000
C2779       C  0.83642583  0.34257300  0.92145369     0.08200
C2780       C  0.84844880  0.34138280  0.93778234    -0.14000
H2781       H  0.86040228  0.32318364  0.95996438     0.12200
H2782       H  0.82024156  0.29615204  0.92056311     0.12200
H2783       H  0.81693536  0.32672784  0.90294947     0.12200
H2784       H  0.85693117  0.35378624  0.94216466     0.12200
C2785       C  0.91307738  0.19233620  0.05918737    -0.14000
C2786       C  0.89611566  0.20275054  0.05519822     0.08200
C2787       C  0.88139242  0.20305825  0.06914769    -0.14000
C2788       C  0.88306279  0.19195649  0.08610944    -0.14000
C2789       C  0.89971233  0.18084295  0.08964650     0.08200
C2790       C  0.91495723  0.18169090  0.07634820    -0.14000
H2791       H  0.92463183  0.19186990  0.04865813     0.12200
H2792       H  0.86810895  0.21081523  0.06635034     0.12200
H2793       H  0.87106867  0.19143046  0.09612632     0.12200
H2794       H  0.92782863  0.17310717  0.07864374     0.12200
C2795       C  0.88899044  0.14438847  0.90800035    -0.14000
C2796       C  0.87346016  0.15748853  0.90850899     0.08200
C2797       C  0.85839032  0.15518345  0.89507436    -0.14000
C2798       C  0.85879213  0.14013193  0.88153559    -0.14000
C2799       C  0.87434835  0.12712703  0.88097689     0.08200
C2800       C  0.88947861  0.12944028  0.89430976    -0.14000
H2801       H  0.90090296  0.14577495  0.91802405     0.12200
H2802       H  0.84614302  0.16488198  0.89508829     0.12200
H2803       H  0.84702522  0.13879866  0.87130552     0.12200
H2804       H  0.90160031  0.11955168  0.89425915     0.12200
C2805       C  0.38794530  0.81262265  0.08968640    -0.14000
C2806       C  0.39977873  0.82906140  0.09105016     0.08200
C2807       C  0.40969599  0.83536941  0.07455290    -0.14000
C2808       C  0.40715155  0.82601865  0.05676184    -0.14000
C2809       C  0.39466685  0.81006403  0.05504961     0.08200
C2810       C  0.38558376  0.80304005  0.07186058    -0.14000
H2811       H  0.37986685  0.80776627  0.10219098     0.12200
H2812       H  0.41862783  0.84820376  0.07522498     0.12200
H2813       H  0.41454695  0.83168442  0.04418140     0.12200
H2814       H  0.37580626  0.79087178  0.07101288     0.12200
C2815       C  0.30180245  0.09823229  0.11332659    -0.14000
C2816       C  0.31675187  0.10038564  0.09976855     0.08200
C2817       C  0.32127234  0.08489863  0.08749407    -0.14000
C2818       C  0.31187924  0.06713735  0.08951770    -0.14000
C2819       C  0.29764080  0.06452765  0.10376562     0.08200
C2820       C  0.29210819  0.08047674  0.11513820    -0.14000
H2821       H  0.29836532  0.10994188  0.12317374     0.12200
H2822       H  0.33296305  0.08617520  0.07718234     0.12200
H2823       H  0.31632103  0.05517221  0.08041763     0.12200
H2824       H  0.28126931  0.07884992  0.12629356     0.12200
C2825       C  0.35957018  0.91900686  0.12553935    -0.14000
C2826       C  0.34007646  0.91380304  0.12377403     0.08200
C2827       C  0.33528514  0.89411258  0.12212570    -0.14000
C2828       C  0.34968999  0.87993726  0.12203782    -0.14000
C2829       C  0.36915944  0.88512673  0.12394870     0.08200
C2830       C  0.37395936  0.90478899  0.12581909    -0.14000
H2831       H  0.36368831  0.93404899  0.12697190     0.12200
H2832       H  0.32040751  0.88966484  0.12062339     0.12200
H2833       H  0.34561671  0.86486961  0.12064957     0.12200
H2834       H  0.38887966  0.90916436  0.12717890     0.12200
C2835       C  0.33593242  0.82432589  0.41643615    -0.14000
C2836       C  0.34896272  0.83932010  0.42034173     0.08200
C2837       C  0.36285872  0.83659990  0.43493721    -0.14000
C2838       C  0.36405527  0.81896186  0.44504618    -0.14000
C2839       C  0.35169525  0.80352042  0.44037624     0.08200
C2840       C  0.33734149  0.80660550  0.42625385    -0.14000
H2841       H  0.32528814  0.82598406  0.40506830     0.12200
H2842       H  0.37324250  0.84788796  0.43799287     0.12200
H2843       H  0.37532585  0.81706408  0.45573203     0.12200
H2844       H  0.32747434  0.79510558  0.42239906     0.12200
C2845       C  0.32341213  0.91659963  0.40901790    -0.14000
C2846       C  0.32296804  0.90285076  0.39406711     0.08200
C2847       C  0.31117607  0.90638618  0.37784138    -0.14000
C2848       C  0.30053684  0.92364473  0.37630175    -0.14000
C2849       C  0.30197373  0.93794789  0.39069294     0.08200
C2850       C  0.31320089  0.93405516  0.40724566    -0.14000
H2851       H  0.33258160  0.91434141  0.42152387     0.12200
H2852       H  0.31080334  0.89608979  0.36601401     0.12200
H2853       H  0.29219027  0.92633003  0.36331137     0.12200
H2854       H  0.31458120  0.94483549  0.41855410     0.12200
C2855       C  0.57462063  0.90151736  0.29020236    -0.14000
C2856       C  0.55819022  0.91072508  0.29783182     0.08200
C2857       C  0.56026729  0.92223753  0.31452735    -0.14000
C2858       C  0.57800237  0.92353832  0.32405202    -0.14000
C2859       C  0.59406161  0.91343092  0.31707322     0.08200
C2860       C  0.59239359  0.90273319  0.29986138    -0.14000
H2861       H  0.57351935  0.89247617  0.27744449     0.12200
H2862       H  0.54800920  0.92974402  0.32065805     0.12200
H2863       H  0.57896127  0.93164191  0.33745643     0.12200
H2864       H  0.60458083  0.89454959  0.29446481     0.12200
C2865       C  0.45027372  0.87318096  0.17415792    -0.14000
C2866       C  0.45039223  0.85782810  0.18748998     0.08200
C2867       C  0.44011298  0.84087410  0.18300884    -0.14000
C2868       C  0.42923948  0.83959873  0.16593161    -0.14000
C2869       C  0.42804626  0.85545019  0.15327054     0.08200
C2870       C  0.43897191  0.87210677  0.15733787    -0.14000
H2871       H  0.45792291  0.88646303  0.17733617     0.12200
H2872       H  0.43999620  0.82883318  0.19305917     0.12200
H2873       H  0.42082314  0.82668890  0.16320361     0.12200
H2874       H  0.43818963  0.88455113  0.14782021     0.12200
C2875       C  0.40111366  0.85685165  0.34039660    -0.14000
C2876       C  0.41161542  0.87397117  0.33737898     0.08200
C2877       C  0.40708502  0.89038956  0.34850534    -0.14000
C2878       C  0.39219479  0.88979586  0.36216224    -0.14000
C2879       C  0.38176386  0.87265563  0.36528657     0.08200
C2880       C  0.38647568  0.85613992  0.35435786    -0.14000
H2881       H  0.40435768  0.84395096  0.33210091     0.12200
H2882       H  0.41483249  0.90381981  0.34641030     0.12200
H2883       H  0.38895231  0.90270050  0.37045892     0.12200
H2884       H  0.37860122  0.84276952  0.35639462     0.12200
C2885       C  0.17148612  0.92387380  0.16416777    -0.14000
C2886       C  0.15452275  0.93297326  0.15801775     0.08200
C2887       C  0.15550705  0.95180521  0.15041379    -0.14000
C2888       C  0.17345380  0.96092834  0.14798017    -0.14000
C2889       C  0.19061866  0.95125285  0.15303303     0.08200
C2890       C  0.18927720  0.93292582  0.16184346    -0.14000
H2891       H  0.17102631  0.90929363  0.16993853     0.12200
H2892       H  0.14255772  0.95894450  0.14531971     0.12200
H2893       H  0.17392866  0.97505375  0.14122140     0.12200
H2894       H  0.20203278  0.92515812  0.16640447     0.12200
C2895       C  0.07078533  0.91962153  0.17105731    -0.14000
C2896       C  0.08783520  0.91284518  0.17953679     0.08200
C2897       C  0.08720438  0.90485820  0.19822980    -0.14000
C2898       C  0.06950785  0.90268255  0.20785039    -0.14000
C2899       C  0.05221019  0.90834241  0.19880380     0.08200
C2900       C  0.05319933  0.91753744  0.18062362    -0.14000
H2901       H  0.07097844  0.92565901  0.15656934     0.12200
H2902       H  0.10021779  0.89926209  0.20485999     0.12200
H2903       H  0.06928870  0.89557073  0.22181777     0.12200
H2904       H  0.04028967  0.92249631  0.17335702     0.12200
C2905       C  0.13697881  0.68412820  0.05332451    -0.14000
C2906       C  0.15016124  0.69916617  0.05677895     0.08200
C2907       C  0.16532854  0.69591047  0.06993958    -0.14000
C2908       C  0.16676469  0.67839401  0.08011866    -0.14000
C2909       C  0.15282030  0.66390910  0.07768392     0.08200
C2910       C  0.13812365  0.66677186  0.06391655    -0.14000
H2911       H  0.12504828  0.68629309  0.04343633     0.12200
H2912       H  0.17569411  0.70724331  0.07289168     0.12200
H2913       H  0.17806169  0.67664498  0.09081683     0.12200
H2914       H  0.12706632  0.65589261  0.06197817     0.12200
C2915       C  0.12248702  0.86842805  0.09243979    -0.14000
C2916       C  0.12240234  0.84883867  0.09795331     0.08200
C2917       C  0.12158548  0.84412823  0.11774251    -0.14000
C2918       C  0.12072646  0.85876518  0.13173782    -0.14000
C2919       C  0.12112316  0.87828890  0.12615281     0.08200
C2920       C  0.12206683  0.88301955  0.10643416    -0.14000
H2921       H  0.12325923  0.87249763  0.07731440     0.12200
H2922       H  0.12137300  0.82915678  0.12237533     0.12200
H2923       H  0.12007176  0.85488746  0.14693001     0.12200
H2924       H  0.12239029  0.89802729  0.10189261     0.12200
C2925       C  0.05576511  0.87776300  0.84726246    -0.14000
C2926       C  0.06722288  0.86163567  0.85201134     0.08200
C2927       C  0.06749887  0.84570138  0.83942225    -0.14000
C2928       C  0.05756137  0.84640044  0.82177945    -0.14000
C2929       C  0.04679740  0.86286096  0.81660239     0.08200
C2930       C  0.04540651  0.87825783  0.82981932    -0.14000
H2931       H  0.05550274  0.89029483  0.85669129     0.12200
H2932       H  0.07642999  0.83324073  0.84265111     0.12200
H2933       H  0.05883145  0.83433098  0.81184611     0.12200
H2934       H  0.03735627  0.89117814  0.82611477     0.12200
C2935       C  0.11078616  0.82009699  0.91426580    -0.14000
C2936       C  0.09706960  0.83505916  0.91324984     0.08200
C2937       C  0.08521968  0.83858742  0.92927989    -0.14000
C2938       C  0.08764116  0.82799916  0.94638677    -0.14000
C2939       C  0.10183283  0.81347811  0.94778510     0.08200
C2940       C  0.11298309  0.80919699  0.93133541    -0.14000
H2941       H  0.12023159  0.81733170  0.90209115     0.12200
H2942       H  0.07472054  0.85019891  0.92886649     0.12200
H2943       H  0.07873282  0.83156611  0.95875809     0.12200
H2944       H  0.12411573  0.79822626  0.93202864     0.12200
C2945       C  0.30767023  0.93575336  0.82900680    -0.14000
C2946       C  0.30602404  0.95096543  0.84244971     0.08200
C2947       C  0.32235617  0.95633112  0.85324640    -0.14000
C2948       C  0.33955188  0.94571733  0.85163405    -0.14000
C2949       C  0.34080062  0.92994821  0.83883786     0.08200
C2950       C  0.32491499  0.92541459  0.82715707    -0.14000
H2951       H  0.29537503  0.93139293  0.82038760     0.12200
H2952       H  0.32146941  0.96789039  0.86380342     0.12200
H2953       H  0.35157432  0.94920833  0.86101368     0.12200
H2954       H  0.32550739  0.91313082  0.81741950     0.12200
C2955       C  0.19216767  0.07251862  0.90673560    -0.14000
C2956       C  0.20366563  0.06803739  0.89060153     0.08200
C2957       C  0.20653245  0.08216739  0.87627067    -0.14000
C2958       C  0.19688584  0.09998070  0.87739670    -0.14000
C2959       C  0.18475305  0.10410306  0.89316936     0.08200
C2960       C  0.18298993  0.09048639  0.90812732    -0.14000
H2961       H  0.18972078  0.06181688  0.91793539     0.12200
H2962       H  0.21515234  0.07894671  0.86359832     0.12200
H2963       H  0.19825754  0.11023816  0.86561109     0.12200
H2964       H  0.17350172  0.09326935  0.92027074     0.12200
C2965       C  0.13595819  0.92559477  0.87531053    -0.14000
C2966       C  0.15537416  0.91980745  0.87488541     0.08200
C2967       C  0.15986500  0.90009425  0.87704481    -0.14000
C2968       C  0.14524788  0.88643406  0.87964673    -0.14000
C2969       C  0.12583625  0.89216596  0.87975071     0.08200
C2970       C  0.12130954  0.91187089  0.87752242    -0.14000
H2971       H  0.13207944  0.94068592  0.87360340     0.12200
H2972       H  0.17470169  0.89524269  0.87695563     0.12200
H2973       H  0.14907999  0.87130613  0.88116282     0.12200
H2974       H  0.10643379  0.91663280  0.87756975     0.12200
C2975       C  0.05069070  0.13287504  0.65762416    -0.14000
C2976       C  0.06192041  0.14920149  0.65305174     0.08200
C2977       C  0.06308131  0.16437405  0.66650702    -0.14000
C2978       C  0.05437657  0.16263138  0.68473809    -0.14000
C2979       C  0.04394701  0.14589668  0.68968367     0.08200
C2980       C  0.04155071  0.13135643  0.67568473    -0.14000
H2981       H  0.04976486  0.12089668  0.64754122     0.12200
H2982       H  0.07185680  0.17696041  0.66343990     0.12200
H2983       H  0.05642561  0.17405199  0.69528888     0.12200
H2984       H  0.03375580  0.11824475  0.67918514     0.12200
C2985       C  0.08026394  0.18112799  0.55616271    -0.14000
C2986       C  0.09389557  0.19608392  0.55452243     0.08200
C2987       C  0.10359829  0.20228253  0.57130605    -0.14000
C2988       C  0.10087628  0.19254628  0.58900100    -0.14000
C2989       C  0.08802403  0.17686880  0.59024960     0.08200
C2990       C  0.07730061  0.17169667  0.57384326    -0.14000
H2991       H  0.07250361  0.17611110  0.54350753     0.12200
H2992       H  0.11429132  0.21365017  0.57043325     0.12200
H2993       H  0.10958600  0.19650271  0.60140772     0.12200
H2994       H  0.06758345  0.15944812  0.57439556     0.12200
C2995       C  0.31431700  0.04555956  0.65532200    -0.14000
C2996       C  0.29735168  0.05683238  0.65534013     0.08200
C2997       C  0.29901628  0.07676543  0.65923920    -0.14000
C2998       C  0.31700690  0.08540880  0.66157929    -0.14000
C2999       C  0.33397733  0.07445521  0.66026368     0.08200
C3000       C  0.33249489  0.05430890  0.65779057    -0.14000
H3001       H  0.31366030  0.03015504  0.65258461     0.12200
H3002       H  0.28649009  0.08603137  0.65991655     0.12200
H3003       H  0.31772870  0.10094855  0.66359377     0.12200
H3004       H  0.34538832  0.04554731  0.65660512     0.12200
C3005       C  0.17909024  0.93562402  0.59533185    -0.14000
C3006       C  0.19337429  0.93935594  0.60932070     0.08200
C3007       C  0.19991096  0.92401154  0.62098477    -0.14000
C3008       C  0.19125106  0.90570394  0.61967444    -0.14000
C3009       C  0.17629842  0.90235686  0.60635473     0.08200
C3010       C  0.17068339  0.91729189  0.59383117    -0.14000
H3011       H  0.17387173  0.94710626  0.58601910     0.12200
H3012       H  0.21077725  0.92648229  0.63197072     0.12200
H3013       H  0.19547555  0.89445458  0.62975717     0.12200
H3014       H  0.15892893  0.91510363  0.58373252     0.12200
C3015       C  0.12798544  0.08508218  0.62278872    -0.14000
C3016       C  0.14749672  0.09039879  0.62151245     0.08200
C3017       C  0.15215694  0.11008503  0.61940675    -0.14000
C3018       C  0.13767022  0.12414292  0.61869133    -0.14000
C3019       C  0.11821928  0.11886400  0.62034813     0.08200
C3020       C  0.11349621  0.09919815  0.62237469    -0.14000
H3021       H  0.12391016  0.07006305  0.62451134     0.12200
H3022       H  0.16701365  0.11466388  0.61820497     0.12200
H3023       H  0.14168531  0.13922079  0.61724818     0.12200
H3024       H  0.09858109  0.09476661  0.62359223     0.12200
loop_ 
_geom_bond_atom_site_label_1 
_geom_bond_atom_site_label_2 
_geom_bond_distance 
_geom_bond_site_symmetry_2 
_ccdc_geom_bond_type 
N1            N2   1.325       .  A
N1            C5   1.352       .  A
N1           Cu9   2.108   1_565  S
N2            C3   1.342       .  A
N2           Cu8   2.072   1_565  S
C3            C4   1.382       .  A
C3            H6   1.082       .  S
C4            C5   1.391       .  A
C4         C3006   1.486       .  S
C5            H7   1.082       .  S
Cu8          N11   2.071       .  S
Cu9          N19   2.108       .  S
Cu10         N12   2.070       .  S
Cu10         N18   2.071       .  S
N11          N12   1.319       .  A
N11          C15   1.346       .  A
N12          C13   1.344       .  A
C13          C14   1.387       .  A
C13          H16   1.082       .  S
C14          C15   1.388       .  A
C14        C3016   1.484       .  S
C15          H17   1.082       .  S
N18          N19   1.322       .  A
N18          C22   1.340       .  A
N19          C20   1.354       .  A
C20          C21   1.396       .  A
C20          H23   1.081       .  S
C21          C22   1.387       .  A
C21        C2996   1.497       .  S
C22          H24   1.080       .  S
C25          C26   1.411       .  A
C25          C30   1.403       .  A
C25        C2989   1.482       .  S
C26          C27   1.413       .  A
C26          H31   1.083       .  S
C27          C28   1.405       .  A
C27        C2976   1.486       .  S
C28          C29   1.402       .  A
C28          H32   1.084       .  S
C29          C30   1.402       .  A
C29        C3019   1.483       .  S
C30          H33   1.084       .  S
N34          N35   1.323       .  A
N34          C38   1.351       .  A
N34         Cu42   2.099       .  S
N35          C36   1.341       .  A
N35         Cu41   2.065   1_545  S
C36          C37   1.380       .  A
C36          H39   1.082       .  S
C37          C38   1.389       .  A
C37        C2956   1.478       .  S
C38          H40   1.082       .  S
Cu41         N44   2.065       .  S
Cu42         N52   2.100   1_545  S
Cu43         N45   2.076       .  S
Cu43         N51   2.077       .  S
N44          N45   1.320       .  A
N44          C48   1.345       .  A
N45          C46   1.346       .  A
C46          C47   1.387       .  A
C46          H49   1.082       .  S
C47          C48   1.385       .  A
C47        C2966   1.480       .  S
C48          H50   1.082       .  S
N51          N52   1.324       .  A
N51          C55   1.343       .  A
N52          C53   1.352       .  A
C53          C54   1.390       .  A
C53          H56   1.082       .  S
C54          C55   1.383       .  A
C54        C2946   1.485       .  S
C55          H57   1.082       .  S
C58          C59   1.404       .  A
C58          C63   1.410       .  A
C58        C2926   1.483       .  S
C59          C60   1.402       .  A
C59          H64   1.084       .  S
C60          C61   1.404       .  A
C60        C2969   1.482       .  S
C61          C62   1.404       .  A
C61          H65   1.084       .  S
C62          C63   1.409       .  A
C62        C2936   1.481       .  S
C63          H66   1.083       .  S
N67          N68   1.326       .  A
N67          C71   1.355       .  A
N67         Cu75   2.125       .  S
N68          C69   1.343       .  A
N68         Cu74   2.077       .  S
C69          C70   1.381       .  A
C69          H72   1.082       .  S
C70          C71   1.394       .  A
C70        C2906   1.489       .  S
C71          H73   1.082       .  S
Cu74         N77   2.076       .  S
Cu75         N85   2.123   1_554  S
Cu76         N78   2.056       .  S
Cu76         N84   2.056   1_554  S
N77          N78   1.319       .  A
N77          C81   1.347       .  A
N78          C79   1.342       .  A
C79          C80   1.384       .  A
C79          H82   1.082       .  S
C80          C81   1.388       .  A
C80        C2916   1.479       .  S
C81          H83   1.082       .  S
N84          N85   1.323       .  A
N84          C88   1.340       .  A
N85          C86   1.356       .  A
C86          C87   1.396       .  A
C86          H89   1.082       .  S
C87          C88   1.379       .  A
C87        C2939   1.488       .  S
C88          H90   1.082       .  S
C91          C92   1.410       .  A
C91          C96   1.404       .  A
C91        C2896   1.476       .  S
C92          C93   1.409       .  A
C92          H97   1.083       .  S
C93          C94   1.403       .  A
C93        C2886   1.478       .  S
C94          C95   1.398       .  A
C94          H98   1.085       .  S
C95          C96   1.398       .  A
C95        C2919   1.474       .  S
C96          H99   1.085       .  S
N100        N101   1.323       .  A
N100        C104   1.351       .  A
N100       Cu108   2.099       .  S
N101        C102   1.343       .  A
N101       Cu107   2.076       .  S
C102        C103   1.385       .  A
C102        H105   1.082       .  S
C103        C104   1.392       .  A
C103       C2856   1.489       .  S
C104        H106   1.082       .  S
Cu107       N110   2.076       .  S
Cu108       N118   2.099       .  S
Cu109       N111   2.080       .  S
Cu109       N117   2.080       .  S
N110        N111   1.321       .  A
N110        C114   1.346       .  A
N111        C112   1.347       .  A
C112        C113   1.388       .  A
C112        H115   1.082       .  S
C113        C114   1.387       .  A
C113       C2876   1.484       .  S
C114        H116   1.082       .  S
N117        N118   1.324       .  A
N117        C121   1.344       .  A
N118        C119   1.351       .  A
C119        C120   1.390       .  A
C119        H122   1.082       .  S
C120        C121   1.382       .  A
C120       C2866   1.484       .  S
C121        H123   1.082       .  S
C124        C125   1.405       .  A
C124        C129   1.413       .  A
C124       C2846   1.488       .  S
C125        C126   1.405       .  A
C125        H130   1.084       .  S
C126        C127   1.404       .  A
C126       C2879   1.488       .  S
C127        C128   1.405       .  A
C127        H131   1.084       .  S
C128        C129   1.413       .  A
C128       C2836   1.487       .  S
C129        H132   1.083       .  S
N133        N134   1.323       .  A
N133        C137   1.353       .  A
N133       Cu141   2.104   1_565  S
N134        C135   1.340       .  A
N134       Cu140   2.068       .  S
C135        C136   1.384       .  A
C135        H138   1.081       .  S
C136        C137   1.394       .  A
C136       C2889   1.491       .  S
C137        H139   1.082       .  S
Cu140       N143   2.067       .  S
Cu141       N151   2.105       .  S
Cu142       N144   2.072       .  S
Cu142       N150   2.073   1_565  S
N143        N144   1.319       .  A
N143        C147   1.345       .  A
N144        C145   1.346       .  A
C145        C146   1.388       .  A
C145        H148   1.082       .  S
C146        C147   1.386       .  A
C146       C2826   1.482       .  S
C147        H149   1.082       .  S
N150        N151   1.324       .  A
N150        C154   1.341       .  A
N151        C152   1.353       .  A
C152        C153   1.391       .  A
C152        H155   1.082       .  S
C153        C154   1.381       .  A
C153       C2819   1.485       .  S
C154        H156   1.082       .  S
C157        C158   1.402       .  A
C157        C162   1.409       .  A
C157       C2806   1.481       .  S
C158        C159   1.402       .  A
C158        H163   1.084       .  S
C159        C160   1.403       .  A
C159       C2829   1.484       .  S
C160        C161   1.406       .  A
C160        H164   1.084       .  S
C161        C162   1.412       .  A
C161       C2869   1.486       .  S
C162        H165   1.083       .  S
N166        N167   1.324       .  A
N166        C170   1.353       .  A
N166       Cu174   2.105   1_554  S
N167        C168   1.343       .  A
N167       Cu173   2.073   1_554  S
C168        C169   1.381       .  A
C168        H171   1.082       .  S
C169        C170   1.391       .  A
C169       C2786   1.484       .  S
C170        H172   1.082       .  S
Cu173       N176   2.074       .  S
Cu174       N184   2.105       .  S
Cu175       N177   2.074       .  S
Cu175       N183   2.074       .  S
N176        N177   1.320       .  A
N176        C180   1.346       .  A
N177        C178   1.345       .  A
C178        C179   1.389       .  A
C178        H181   1.081       .  S
C179        C180   1.389       .  A
C179       C2796   1.487       .  S
C180        H182   1.081       .  S
N183        N184   1.323       .  A
N183        C187   1.344       .  A
N184        C185   1.351       .  A
C185        C186   1.393       .  A
C185        H188   1.082       .  S
C186        C187   1.385       .  A
C186       C2776   1.491       .  S
C187        H189   1.082       .  S
C190        C191   1.405       .  A
C190        C195   1.413       .  A
C190       C2756   1.486       .  S
C191        C192   1.401       .  A
C191        H196   1.084       .  S
C192        C193   1.400       .  A
C192       C2799   1.485       .  S
C193        C194   1.406       .  A
C193        H197   1.084       .  S
C194        C195   1.414       .  A
C194       C2766   1.488       .  S
C195        H198   1.083       .  S
N199        N200   1.323       .  A
N199        C203   1.354       .  A
N199       Cu207   2.112   1_655  S
N200        C201   1.342       .  A
N200       Cu206   2.074   1_655  S
C201        C202   1.387       .  A
C201        H204   1.081       .  S
C202        C203   1.396       .  A
C202       C2769   1.498       .  S
C203        H205   1.081       .  S
Cu206       N209   2.072       .  S
Cu207       N217   2.112       .  S
Cu208       N210   2.070       .  S
Cu208       N216   2.071       .  S
N209        N210   1.319       .  A
N209        C213   1.345       .  A
N210        C211   1.346       .  A
C211        C212   1.386       .  A
C211        H214   1.082       .  S
C212        C213   1.387       .  A
C212       C2746   1.481       .  S
C213        H215   1.082       .  S
N216        N217   1.324       .  A
N216        C220   1.343       .  A
N217        C218   1.353       .  A
C218        C219   1.392       .  A
C218        H221   1.082       .  S
C219        C220   1.380       .  A
C219       C2979   1.484       .  S
C220        H222   1.082       .  S
C223        C224   1.403       .  A
C223        C228   1.406       .  A
C223       C2736   1.479       .  S
C224        C225   1.402       .  A
C224        H229   1.084       .  S
C225        C226   1.403       .  A
C225       C2749   1.483       .  S
C226        C227   1.405       .  A
C226        H230   1.084       .  S
C227        C228   1.408       .  A
C227       C2959   1.479       .  S
C228        H231   1.084       .  S
N232        N233   1.324       .  A
N232        C236   1.353       .  A
N232       Cu240   2.110       .  S
N233        C234   1.345       .  A
N233       Cu239   2.083       .  S
C234        C235   1.384       .  A
C234        H237   1.082       .  S
C235        C236   1.391       .  A
C235       C2706   1.488       .  S
C236        H238   1.082       .  S
Cu239       N242   2.082       .  S
Cu240       N250   2.110   1_455  S
Cu241       N243   2.073       .  S
Cu241       N249   2.073   1_455  S
N242        N243   1.320       .  A
N242        C246   1.346       .  A
N243        C244   1.347       .  A
C244        C245   1.389       .  A
C244        H247   1.082       .  S
C245        C246   1.389       .  A
C245       C2726   1.489       .  S
C246        H248   1.081       .  S
N249        N250   1.324       .  A
N249        C253   1.342       .  A
N250        C251   1.354       .  A
C251        C252   1.393       .  A
C251        H254   1.082       .  S
C252        C253   1.382       .  A
C252       C2716   1.487       .  S
C253        H255   1.082       .  S
C256        C257   1.403       .  A
C256        C261   1.413       .  A
C256       C2696   1.486       .  S
C257        C258   1.402       .  A
C257        H262   1.084       .  S
C258        C259   1.403       .  A
C258       C2729   1.483       .  S
C259        C260   1.407       .  A
C259        H263   1.084       .  S
C260        C261   1.413       .  A
C260       C2909   1.488       .  S
C261        H264   1.083       .  S
N265        N266   1.324       .  A
N265        C269   1.352       .  A
N265       Cu273   2.110       .  S
N266        C267   1.344       .  A
N266       Cu272   2.076       .  S
C267        C268   1.383       .  A
C267        H270   1.082       .  S
C268        C269   1.392       .  A
C268       C2666   1.488       .  S
C269        H271   1.082       .  S
Cu272       N275   2.076       .  S
Cu273       N283   2.110   1_554  S
Cu274       N276   2.069       .  S
Cu274       N282   2.068   1_554  S
N275        N276   1.320       .  A
N275        C279   1.345       .  A
N276        C277   1.345       .  A
C277        C278   1.387       .  A
C277        H280   1.082       .  S
C278        C279   1.388       .  A
C278       C2686   1.484       .  S
C279        H281   1.082       .  S
N282        N283   1.323       .  A
N282        C286   1.342       .  A
N283        C284   1.353       .  A
C284        C285   1.394       .  A
C284        H287   1.082       .  S
C285        C286   1.381       .  A
C285       C2676   1.486       .  S
C286        H288   1.082       .  S
C289        C290   1.402       .  A
C289        C294   1.409       .  A
C289       C2646   1.478       .  S
C290        C291   1.401       .  A
C290        H295   1.084       .  S
C291        C292   1.403       .  A
C291       C2689   1.485       .  S
C292        C293   1.407       .  A
C292        H296   1.084       .  S
C293        C294   1.410       .  A
C293       C2656   1.484       .  S
C294        H297   1.083       .  S
N298        N299   1.322       .  A
N298        C302   1.353       .  A
N298       Cu306   2.104       .  S
N299        C300   1.343       .  A
N299       Cu305   2.080       .  S
C300        C301   1.388       .  A
C300        H303   1.081       .  S
C301        C302   1.395       .  A
C301       C2759   1.497       .  S
C302        H304   1.082       .  S
Cu305       N308   2.080       .  S
Cu306       N316   2.105   1_545  S
Cu307       N309   2.078       .  S
Cu307       N315   2.078   1_545  S
N308        N309   1.321       .  A
N308        C312   1.346       .  A
N309        C310   1.347       .  A
C310        C311   1.388       .  A
C310        H313   1.082       .  S
C311        C312   1.388       .  A
C311       C2636   1.486       .  S
C312        H314   1.082       .  S
N315        N316   1.325       .  A
N315        C319   1.345       .  A
N316        C317   1.351       .  A
C317        C318   1.390       .  A
C317        H320   1.082       .  S
C318        C319   1.383       .  A
C318       C2626   1.484       .  S
C319        H321   1.082       .  S
C322        C323   1.404       .  A
C322        C327   1.410       .  A
C322       C2679   1.483       .  S
C323        C324   1.401       .  A
C323        H328   1.084       .  S
C324        C325   1.403       .  A
C324       C2639   1.480       .  S
C325        C326   1.408       .  A
C325        H329   1.084       .  S
C326        C327   1.412       .  A
C326       C2616   1.490       .  S
C327        H330   1.083       .  S
N331        N332   1.322       .  A
N331        C335   1.355       .  A
N331       Cu339   2.112       .  S
N332        C333   1.341       .  A
N332       Cu338   2.068       .  S
C333        C334   1.385       .  A
C333        H336   1.080       .  S
C334        C335   1.396       .  A
C334       C2596   1.495       .  S
C335        H337   1.081       .  S
Cu338       N341   2.068       .  S
Cu339       N349   2.113       .  S
Cu340       N342   2.077       .  S
Cu340       N348   2.078       .  S
N341        N342   1.319       .  A
N341        C345   1.344       .  A
N342        C343   1.348       .  A
C343        C344   1.389       .  A
C343        H346   1.082       .  S
C344        C345   1.386       .  A
C344       C2606   1.484       .  S
C345        H347   1.082       .  S
N348        N349   1.326       .  A
N348        C352   1.343       .  A
N349        C350   1.353       .  A
C350        C351   1.390       .  A
C350        H353   1.082       .  S
C351        C352   1.379       .  A
C351       C2619   1.481       .  S
C352        H354   1.082       .  S
C355        C356   1.409       .  A
C355        C360   1.405       .  A
C355       C2586   1.483       .  S
C356        C357   1.409       .  A
C356        H361   1.083       .  S
C357        C358   1.405       .  A
C357       C2576   1.483       .  S
C358        C359   1.405       .  A
C358        H362   1.084       .  S
C359        C360   1.404       .  A
C359       C2609   1.485       .  S
C360        H363   1.084       .  S
N364        N365   1.324       .  A
N364        C368   1.352       .  A
N364       Cu372   2.107   1_565  S
N365        C366   1.343       .  A
N365       Cu371   2.069   1_565  S
C366        C367   1.381       .  A
C366        H369   1.082       .  S
C367        C368   1.391       .  A
C367       C2556   1.483       .  S
C368        H370   1.082       .  S
Cu371       N374   2.069       .  S
Cu372       N382   2.107       .  S
Cu373       N375   2.070       .  S
Cu373       N381   2.071       .  S
N374        N375   1.320       .  A
N374        C378   1.345       .  A
N375        C376   1.345       .  A
C376        C377   1.387       .  A
C376        H379   1.082       .  S
C377        C378   1.386       .  A
C377       C2566   1.481       .  S
C378        H380   1.082       .  S
N381        N382   1.324       .  A
N381        C385   1.343       .  A
N382        C383   1.352       .  A
C383        C384   1.392       .  A
C383        H386   1.082       .  S
C384        C385   1.383       .  A
C384       C2649   1.486       .  S
C385        H387   1.082       .  S
C388        C389   1.405       .  A
C388        C393   1.411       .  A
C388       C2789   1.486       .  S
C389        C390   1.403       .  A
C389        H394   1.084       .  S
C390        C391   1.401       .  A
C390       C2569   1.481       .  S
C391        C392   1.403       .  A
C391        H395   1.084       .  S
C392        C393   1.410       .  A
C392       C2546   1.483       .  S
C393        H396   1.083       .  S
N397        N398   1.322       .  A
N397        C401   1.352       .  A
N397       Cu405   2.104   1_455  S
N398        C399   1.340       .  A
N398       Cu404   2.064   1_455  S
C399        C400   1.383       .  A
C399        H402   1.081       .  S
C400        C401   1.394       .  A
C400       C2899   1.489       .  S
C401        H403   1.082       .  S
Cu404       N407   2.063       .  S
Cu405       N415   2.105       .  S
Cu406       N408   2.076       .  S
Cu406       N414   2.077       .  S
N407        N408   1.319       .  A
N407        C411   1.343       .  A
N408        C409   1.347       .  A
C409        C410   1.389       .  A
C409        H412   1.082       .  S
C410        C411   1.386       .  A
C410       C2536   1.482       .  S
C411        H413   1.082       .  S
N414        N415   1.325       .  A
N414        C418   1.342       .  A
N415        C416   1.353       .  A
C416        C417   1.391       .  A
C416        H419   1.082       .  S
C417        C418   1.382       .  A
C417       C2526   1.485       .  S
C418        H420   1.082       .  S
C421        C422   1.405       .  A
C421        C426   1.410       .  A
C421       C2559   1.482       .  S
C422        C423   1.403       .  A
C422        H427   1.084       .  S
C423        C424   1.402       .  A
C423       C2539   1.481       .  S
C424        C425   1.403       .  A
C424        H428   1.084       .  S
C425        C426   1.408       .  A
C425       C2516   1.480       .  S
C426        H429   1.083       .  S
N430        N431   1.321       .  A
N430        C434   1.355       .  A
N430       Cu438   2.115       .  S
N431        C432   1.339       .  A
N431       Cu437   2.059       .  S
C432        C433   1.385       .  A
C432        H435   1.080       .  S
C433        C434   1.399       .  A
C433       C2486   1.498       .  S
C434        H436   1.081       .  S
Cu437       N440   2.059       .  S
Cu438       N448   2.117       .  S
Cu439       N441   2.079       .  S
Cu439       N447   2.080       .  S
N440        N441   1.318       .  A
N440        C444   1.343       .  A
N441        C442   1.348       .  A
C442        C443   1.390       .  A
C442        H445   1.082       .  S
C443        C444   1.384       .  A
C443       C2506   1.482       .  S
C444        H446   1.082       .  S
N447        N448   1.326       .  A
N447        C451   1.343       .  A
N448        C449   1.354       .  A
C449        C450   1.393       .  A
C449        H452   1.082       .  S
C450        C451   1.382       .  A
C450       C2499   1.488       .  S
C451        H453   1.082       .  S
C454        C455   1.406       .  A
C454        C459   1.410       .  A
C454       C2466   1.482       .  S
C455        C456   1.402       .  A
C455        H460   1.084       .  S
C456        C457   1.400       .  A
C456       C2509   1.483       .  S
C457        C458   1.404       .  A
C457        H461   1.084       .  S
C458        C459   1.410       .  A
C458       C2476   1.480       .  S
C459        H462   1.083       .  S
N463        N464   1.325       .  A
N463        C467   1.355       .  A
N463       Cu471   2.120       .  S
N464        C465   1.343       .  A
N464       Cu470   2.071       .  S
C465        C466   1.381       .  A
C465        H468   1.082       .  S
C466        C467   1.394       .  A
C466       C2436   1.489       .  S
C467        H469   1.082       .  S
Cu470       N473   2.070       .  S
Cu471       N481   2.119       .  S
Cu472       N474   2.064       .  S
Cu472       N480   2.065       .  S
N473        N474   1.319       .  A
N473        C477   1.345       .  A
N474        C475   1.344       .  A
C475        C476   1.386       .  A
C475        H478   1.082       .  S
C476        C477   1.387       .  A
C476       C2456   1.481       .  S
C477        H479   1.082       .  S
N480        N481   1.324       .  A
N480        C484   1.341       .  A
N481        C482   1.355       .  A
C482        C483   1.394       .  A
C482        H485   1.082       .  S
C483        C484   1.380       .  A
C483       C2446   1.486       .  S
C484        H486   1.082       .  S
C487        C488   1.409       .  A
C487        C492   1.404       .  A
C487       C2859   1.477       .  S
C488        C489   1.409       .  A
C488        H493   1.083       .  S
C489        C490   1.403       .  A
C489       C2426   1.477       .  S
C490        C491   1.400       .  A
C490        H494   1.085       .  S
C491        C492   1.400       .  A
C491       C2459   1.477       .  S
C492        H495   1.084       .  S
N496        N497   1.325       .  A
N496        C500   1.352       .  A
N496       Cu504   2.108       .  S
N497        C498   1.344       .  A
N497       Cu503   2.081   1_545  S
C498        C499   1.382       .  A
C498        H501   1.082       .  S
C499        C500   1.390       .  A
C499       C2406   1.484       .  S
C500        H502   1.082       .  S
Cu503       N506   2.080       .  S
Cu504       N514   2.107   1_545  S
Cu505       N507   2.062       .  S
Cu505       N513   2.063       .  S
N506        N507   1.319       .  A
N506        C510   1.347       .  A
N507        C508   1.344       .  A
C508        C509   1.385       .  A
C508        H511   1.082       .  S
C509        C510   1.389       .  A
C509       C2416   1.483       .  S
C510        H512   1.082       .  S
N513        N514   1.323       .  A
N513        C517   1.340       .  A
N514        C515   1.354       .  A
C515        C516   1.393       .  A
C515        H518   1.082       .  S
C516        C517   1.382       .  A
C516       C2429   1.487       .  S
C517        H519   1.082       .  S
C520        C521   1.409       .  A
C520        C525   1.404       .  A
C520       C2529   1.480       .  S
C521        C522   1.409       .  A
C521        H526   1.083       .  S
C522        C523   1.403       .  A
C522       C2496   1.481       .  S
C523        C524   1.403       .  A
C523        H527   1.084       .  S
C524        C525   1.403       .  A
C524       C2419   1.483       .  S
C525        H528   1.084       .  S
N529        N530   1.323       .  A
N529        C533   1.356       .  A
N529       Cu537   2.116   1_565  S
N530        C531   1.339       .  A
N530       Cu536   2.068       .  S
C531        C532   1.383       .  A
C531        H534   1.081       .  S
C532        C533   1.396       .  A
C532       C2469   1.493       .  S
C533        H535   1.082       .  S
Cu536       N539   2.068       .  S
Cu537       N547   2.116       .  S
Cu538       N540   2.071       .  S
Cu538       N546   2.072   1_565  S
N539        N540   1.318       .  A
N539        C543   1.346       .  A
N540        C541   1.345       .  A
C541        C542   1.388       .  A
C541        H544   1.082       .  S
C542        C543   1.387       .  A
C542       C2396   1.483       .  S
C543        H545   1.082       .  S
N546        N547   1.325       .  A
N546        C550   1.343       .  A
N547        C548   1.353       .  A
C548        C549   1.392       .  A
C548        H551   1.082       .  S
C549        C550   1.380       .  A
C549       C2589   1.485       .  S
C550        H552   1.082       .  S
C553        C554   1.409       .  A
C553        C558   1.406       .  A
C553       C2449   1.481       .  S
C554        C555   1.409       .  A
C554        H559   1.083       .  S
C555        C556   1.402       .  A
C555       C2386   1.481       .  S
C556        C557   1.403       .  A
C556        H560   1.084       .  S
C557        C558   1.404       .  A
C557       C2399   1.483       .  S
C558        H561   1.084       .  S
N562        N563   1.324       .  A
N562        C566   1.354       .  A
N562       Cu570   2.111       .  S
N563        C564   1.342       .  A
N563       Cu569   2.070       .  S
C564        C565   1.382       .  A
C564        H567   1.082       .  S
C565        C566   1.393       .  A
C565       C2389   1.487       .  S
C566        H568   1.082       .  S
Cu569       N572   2.069       .  S
Cu570       N580   2.112       .  S
Cu571       N573   2.074       .  S
Cu571       N579   2.074       .  S
N572        N573   1.319       .  A
N572        C576   1.344       .  A
N573        C574   1.346       .  A
C574        C575   1.388       .  A
C574        H577   1.082       .  S
C575        C576   1.387       .  A
C575       C2376   1.484       .  S
C576        H578   1.082       .  S
N579        N580   1.325       .  A
N579        C583   1.343       .  A
N580        C581   1.353       .  A
C581        C582   1.392       .  A
C581        H584   1.082       .  S
C582        C583   1.381       .  A
C582       C2366   1.485       .  S
C583        H585   1.082       .  S
C586        C587   1.411       .  A
C586        C591   1.405       .  A
C586       C2356   1.485       .  S
C587        C588   1.411       .  A
C587        H592   1.083       .  S
C588        C589   1.405       .  A
C588       C2629   1.486       .  S
C589        C590   1.401       .  A
C589        H593   1.084       .  S
C590        C591   1.401       .  A
C590       C2379   1.478       .  S
C591        H594   1.084       .  S
N595        N596   1.323       .  A
N595        C599   1.354       .  A
N595       Cu603   2.112       .  S
N596        C597   1.340       .  A
N596       Cu602   2.068       .  S
C597        C598   1.384       .  A
C597        H600   1.081       .  S
C598        C599   1.396       .  A
C598       C2336   1.493       .  S
C599        H601   1.082       .  S
Cu602       N605   2.067       .  S
Cu603       N613   2.112       .  S
Cu604       N606   2.070       .  S
Cu604       N612   2.071       .  S
N605        N606   1.319       .  A
N605        C609   1.345       .  A
N606        C607   1.345       .  A
C607        C608   1.387       .  A
C607        H610   1.082       .  S
C608        C609   1.386       .  A
C608       C2346   1.481       .  S
C609        H611   1.082       .  S
N612        N613   1.324       .  A
N612        C616   1.342       .  A
N613        C614   1.353       .  A
C614        C615   1.394       .  A
C614        H617   1.082       .  S
C615        C616   1.383       .  A
C615       C2326   1.490       .  S
C616        H618   1.082       .  S
C619        C620   1.403       .  A
C619        C624   1.411       .  A
C619       C2306   1.482       .  S
C620        C621   1.403       .  A
C620        H625   1.084       .  S
C621        C622   1.403       .  A
C621       C2349   1.484       .  S
C622        C623   1.403       .  A
C622        H626   1.084       .  S
C623        C624   1.410       .  A
C623       C2316   1.482       .  S
C624        H627   1.083       .  S
N628        N629   1.325       .  A
N628        C632   1.354       .  A
N628       Cu636   2.116   1_554  S
N629        C630   1.343       .  A
N629       Cu635   2.079   1_554  S
C630        C631   1.383       .  A
C630        H633   1.082       .  S
C631        C632   1.393       .  A
C631       C2809   1.491       .  S
C632        H634   1.082       .  S
Cu635       N638   2.078       .  S
Cu636       N646   2.115       .  S
Cu637       N639   2.068       .  S
Cu637       N645   2.068       .  S
N638        N639   1.319       .  A
N638        C642   1.347       .  A
N639        C640   1.345       .  A
C640        C641   1.386       .  A
C640        H643   1.082       .  S
C641        C642   1.388       .  A
C641       C2299   1.483       .  S
C642        H644   1.082       .  S
N645        N646   1.324       .  A
N645        C649   1.341       .  A
N646        C647   1.355       .  A
C647        C648   1.395       .  A
C647        H650   1.082       .  S
C648        C649   1.381       .  A
C648       C2319   1.489       .  S
C649        H651   1.082       .  S
C652        C653   1.403       .  A
C652        C657   1.408       .  A
C652       C2949   1.479       .  S
C653        C654   1.403       .  A
C653        H658   1.084       .  S
C654        C655   1.405       .  A
C654       C2296   1.485       .  S
C655        C656   1.406       .  A
C655        H659   1.084       .  S
C656        C657   1.410       .  A
C656       C2369   1.483       .  S
C657        H660   1.083       .  S
N661        N662   1.323       .  A
N661        C665   1.352       .  A
N661       Cu669   2.107   1_554  S
N662        C663   1.343       .  A
N662       Cu668   2.067   1_554  S
C663        C664   1.381       .  A
C663        H666   1.082       .  S
C664        C665   1.392       .  A
C664       C2276   1.484       .  S
C665        H667   1.082       .  S
Cu668       N671   2.067       .  S
Cu669       N679   2.107       .  S
Cu670       N672   2.076       .  S
Cu670       N678   2.076       .  S
N671        N672   1.320       .  A
N671        C675   1.343       .  A
N672        C673   1.346       .  A
C673        C674   1.389       .  A
C673        H676   1.082       .  S
C674        C675   1.386       .  A
C674       C2286   1.484       .  S
C675        H677   1.081       .  S
N678        N679   1.324       .  A
N678        C682   1.344       .  A
N679        C680   1.352       .  A
C680        C681   1.391       .  A
C680        H683   1.082       .  S
C681        C682   1.382       .  A
C681       C2359   1.484       .  S
C682        H684   1.082       .  S
C685        C686   1.404       .  A
C685        C690   1.410       .  A
C685       C2266   1.480       .  S
C686        C687   1.401       .  A
C686        H691   1.084       .  S
C687        C688   1.401       .  A
C687       C2289   1.481       .  S
C688        C689   1.404       .  A
C688        H692   1.084       .  S
C689        C690   1.410       .  A
C689       C2339   1.481       .  S
C690        H693   1.083       .  S
N694        N695   1.324       .  A
N694        C698   1.354       .  A
N694       Cu702   2.113       .  S
N695        C696   1.342       .  A
N695       Cu701   2.074       .  S
C696        C697   1.383       .  A
C696        H699   1.082       .  S
C697        C698   1.394       .  A
C697       C2246   1.490       .  S
C698        H700   1.082       .  S
Cu701       N704   2.073       .  S
Cu702       N712   2.113       .  S
Cu703       N705   2.069       .  S
Cu703       N711   2.070       .  S
N704        N705   1.319       .  A
N704        C708   1.347       .  A
N705        C706   1.344       .  A
C706        C707   1.387       .  A
C706        H709   1.082       .  S
C707        C708   1.388       .  A
C707       C2256   1.483       .  S
C708        H710   1.082       .  S
N711        N712   1.323       .  A
N711        C715   1.341       .  A
N712        C713   1.354       .  A
C713        C714   1.395       .  A
C713        H716   1.082       .  S
C714        C715   1.383       .  A
C714       C2239   1.491       .  S
C715        H717   1.082       .  S
C718        C719   1.403       .  A
C718        C723   1.409       .  A
C718       C2216   1.480       .  S
C719        C720   1.402       .  A
C719        H724   1.084       .  S
C720        C721   1.403       .  A
C720       C2259   1.482       .  S
C721        C722   1.405       .  A
C721        H725   1.084       .  S
C722        C723   1.410       .  A
C722       C2226   1.483       .  S
C723        H726   1.083       .  S
N727        N728   1.324       .  A
N727        C731   1.352       .  A
N727       Cu735   2.106       .  S
N728        C729   1.343       .  A
N728       Cu734   2.075       .  S
C729        C730   1.381       .  A
C729        H732   1.082       .  S
C730        C731   1.391       .  A
C730       C2196   1.484       .  S
C731        H733   1.082       .  S
Cu734       N737   2.075       .  S
Cu735       N745   2.105   1_655  S
Cu736       N738   2.074       .  S
Cu736       N744   2.074   1_655  S
N737        N738   1.319       .  A
N737        C741   1.346       .  A
N738        C739   1.345       .  A
C739        C740   1.388       .  A
C739        H742   1.081       .  S
C740        C741   1.389       .  A
C740       C2206   1.487       .  S
C741        H743   1.081       .  S
N744        N745   1.322       .  A
N744        C748   1.342       .  A
N745        C746   1.353       .  A
C746        C747   1.396       .  A
C746        H749   1.081       .  S
C747        C748   1.387       .  A
C747       C2186   1.495       .  S
C748        H750   1.081       .  S
C751        C752   1.409       .  A
C751        C756   1.404       .  A
C751       C2249   1.480       .  S
C752        C753   1.410       .  A
C752        H757   1.083       .  S
C753        C754   1.407       .  A
C753       C2489   1.487       .  S
C754        C755   1.403       .  A
C754        H758   1.084       .  S
C755        C756   1.403       .  A
C755       C2209   1.487       .  S
C756        H759   1.084       .  S
N760        N761   1.325       .  A
N760        C764   1.352       .  A
N760       Cu768   2.108       .  S
N761        C762   1.344       .  A
N761       Cu767   2.076       .  S
C762        C763   1.382       .  A
C762        H765   1.082       .  S
C763        C764   1.391       .  A
C763       C2166   1.484       .  S
C764        H766   1.082       .  S
Cu767       N770   2.075       .  S
Cu768       N778   2.108       .  S
Cu769       N771   2.070       .  S
Cu769       N777   2.070       .  S
N770        N771   1.320       .  A
N770        C774   1.346       .  A
N771        C772   1.345       .  A
C772        C773   1.386       .  A
C772        H775   1.082       .  S
C773        C774   1.387       .  A
C773       C2176   1.481       .  S
C774        H776   1.082       .  S
N777        N778   1.323       .  A
N777        C781   1.342       .  A
N778        C779   1.353       .  A
C779        C780   1.394       .  A
C779        H782   1.082       .  S
C780        C781   1.384       .  A
C780       C2269   1.492       .  S
C781        H783   1.081       .  S
C784        C785   1.410       .  A
C784        C789   1.404       .  A
C784       C2199   1.485       .  S
C785        C786   1.410       .  A
C785        H790   1.083       .  S
C786        C787   1.405       .  A
C786       C2156   1.484       .  S
C787        C788   1.403       .  A
C787        H791   1.084       .  S
C788        C789   1.403       .  A
C788       C2179   1.484       .  S
C789        H792   1.084       .  S
N793        N794   1.324       .  A
N793        C797   1.351       .  A
N793       Cu801   2.106       .  S
N794        C795   1.344       .  A
N794       Cu800   2.079       .  S
C795        C796   1.384       .  A
C795        H798   1.082       .  S
C796        C797   1.391       .  A
C796       C2229   1.487       .  S
C797        H799   1.082       .  S
Cu800       N803   2.079       .  S
Cu801       N811   2.105   1_655  S
Cu802       N804   2.068       .  S
Cu802       N810   2.069       .  S
N803        N804   1.320       .  A
N803        C807   1.347       .  A
N804        C805   1.344       .  A
C805        C806   1.387       .  A
C805        H808   1.081       .  S
C806        C807   1.390       .  A
C806       C2146   1.486       .  S
C807        H809   1.081       .  S
N810        N811   1.321   1_655  A
N810        C814   1.342   1_655  A
N811        C812   1.352       .  A
C812        C813   1.396       .  A
C812        H815   1.081       .  S
C813        C814   1.387       .  A
C813       C2136   1.496       .  S
C814        H816   1.081       .  S
C817        C818   1.410       .  A
C817        C822   1.402       .  A
C817       C2779   1.479       .  S
C818        C819   1.411       .  A
C818        H823   1.083       .  S
C819        C820   1.405       .  A
C819       C2169   1.482       .  S
C820        C821   1.402       .  A
C820        H824   1.084       .  S
C821        C822   1.400       .  A
C821       C2149   1.477       .  S
C822        H825   1.085       .  S
N826        N827   1.323       .  A
N826        C830   1.355       .  A
N826       Cu834   2.116       .  S
N827        C828   1.340       .  A
N827       Cu833   2.067       .  S
C828        C829   1.385       .  A
C828        H831   1.081       .  S
C829        C830   1.397       .  A
C829       C2119   1.495       .  S
C830        H832   1.082       .  S
Cu833       N836   2.066       .  S
Cu834       N844   2.117       .  S
Cu835       N837   2.074       .  S
Cu835       N843   2.076       .  S
N836        N837   1.318       .  A
N836        C840   1.344       .  A
N837        C838   1.347       .  A
C838        C839   1.389       .  A
C838        H841   1.082       .  S
C839        C840   1.387       .  A
C839       C2126   1.485       .  S
C840        H842   1.082       .  S
N843        N844   1.325       .  A
N843        C847   1.342       .  A
N844        C845   1.355       .  A
C845        C846   1.393       .  A
C845        H848   1.082       .  S
C846        C847   1.381       .  A
C846       C2309   1.488       .  S
C847        H849   1.082       .  S
C850        C851   1.413       .  A
C850        C855   1.403       .  A
C850       C2106   1.486       .  S
C851        C852   1.414       .  A
C851        H856   1.083       .  S
C852        C853   1.406       .  A
C852       C2099   1.489       .  S
C853        C854   1.404       .  A
C853        H857   1.084       .  S
C854        C855   1.403       .  A
C854       C2129   1.487       .  S
C855        H858   1.084       .  S
N859        N860   1.323       .  A
N859        C863   1.351       .  A
N859       Cu867   2.098       .  S
N860        C861   1.342       .  A
N860       Cu866   2.068       .  S
C861        C862   1.381       .  A
C861        H864   1.082       .  S
C862        C863   1.389       .  A
C862       C2739   1.479       .  S
C863        H865   1.082       .  S
Cu866       N869   2.068       .  S
Cu867       N877   2.098   1_556  S
Cu868       N870   2.072       .  S
Cu868       N876   2.072   1_556  S
N869        N870   1.320       .  A
N869        C873   1.344       .  A
N870        C871   1.345       .  A
C871        C872   1.387       .  A
C871        H874   1.081       .  S
C872        C873   1.387       .  A
C872       C2086   1.482       .  S
C873        H875   1.081       .  S
N876        N877   1.323       .  A
N876        C880   1.343       .  A
N877        C878   1.351       .  A
C878        C879   1.389       .  A
C878        H881   1.082       .  S
C879        C880   1.381       .  A
C879       C2076   1.481       .  S
C880        H882   1.082       .  S
C883        C884   1.404       .  A
C883        C888   1.412       .  A
C883       C2116   1.486       .  S
C884        C885   1.400       .  A
C884        H889   1.084       .  S
C885        C886   1.401       .  A
C885       C2089   1.485       .  S
C886        C887   1.405       .  A
C886        H890   1.084       .  S
C887        C888   1.412       .  A
C887       C2139   1.483       .  S
C888        H891   1.083       .  S
N892        N893   1.323       .  A
N892        C896   1.354       .  A
N892       Cu900   2.116       .  S
N893        C894   1.342       .  A
N893       Cu899   2.069       .  S
C894        C895   1.384       .  A
C894        H897   1.081       .  S
C895        C896   1.396       .  A
C895       C2056   1.493       .  S
C896        H898   1.082       .  S
Cu899       N902   2.069       .  S
Cu900       N910   2.117       .  S
Cu901       N903   2.075       .  S
Cu901       N909   2.076       .  S
N902        N903   1.319       .  A
N902        C906   1.345       .  A
N903        C904   1.346       .  A
C904        C905   1.387       .  A
C904        H907   1.082       .  S
C905        C906   1.386       .  A
C905       C2066   1.482       .  S
C906        H908   1.082       .  S
N909        N910   1.324       .  A
N909        C913   1.343       .  A
N910        C911   1.354       .  A
C911        C912   1.394       .  A
C911        H914   1.082       .  S
C912        C913   1.382       .  A
C912       C2699   1.490       .  S
C913        H915   1.082       .  S
C916        C917   1.409       .  A
C916        C921   1.403       .  A
C916       C2046   1.481       .  S
C917        C918   1.411       .  A
C917        H922   1.083       .  S
C918        C919   1.406       .  A
C918       C2079   1.485       .  S
C919        C920   1.403       .  A
C919        H923   1.084       .  S
C920        C921   1.401       .  A
C920       C2069   1.482       .  S
C921        H924   1.084       .  S
N925        N926   1.324       .  A
N925        C929   1.353       .  A
N925       Cu933   2.113       .  S
N926        C927   1.343       .  A
N926       Cu932   2.072       .  S
C927        C928   1.382       .  A
C927        H930   1.082       .  S
C928        C929   1.393       .  A
C928       C2026   1.488       .  S
C929        H931   1.082       .  S
Cu932       N935   2.072       .  S
Cu933       N943   2.114   1_554  S
Cu934       N936   2.080       .  S
Cu934       N942   2.080   1_554  S
N935        N936   1.320       .  A
N935        C939   1.346       .  A
N936        C937   1.346       .  A
C937        C938   1.389       .  A
C937        H940   1.082       .  S
C938        C939   1.387       .  A
C938       C2036   1.485       .  S
C939        H941   1.082       .  S
N942        N943   1.324       .  A
N942        C946   1.344       .  A
N943        C944   1.354       .  A
C944        C945   1.393       .  A
C944        H947   1.082       .  S
C945        C946   1.383       .  A
C945       C2109   1.489       .  S
C946        H948   1.082       .  S
C949        C950   1.407       .  A
C949        C954   1.411       .  A
C949       C2016   1.487       .  S
C950        C951   1.404       .  A
C950        H955   1.084       .  S
C951        C952   1.402       .  A
C951       C2039   1.487       .  S
C952        C953   1.405       .  A
C952        H956   1.084       .  S
C953        C954   1.410       .  A
C953       C2059   1.482       .  S
C954        H957   1.083       .  S
N958        N959   1.323       .  A
N958        C962   1.353       .  A
N958       Cu966   2.111       .  S
N959        C960   1.342       .  A
N959       Cu965   2.065       .  S
C960        C961   1.381       .  A
C960        H963   1.082       .  S
C961        C962   1.393       .  A
C961       C2579   1.486       .  S
C962        H964   1.082       .  S
Cu965       N968   2.065       .  S
Cu966       N976   2.111       .  S
Cu967       N969   2.072       .  S
Cu967       N975   2.073       .  S
N968        N969   1.320       .  A
N968        C972   1.344       .  A
N969        C970   1.346       .  A
C970        C971   1.386       .  A
C970        H973   1.082       .  S
C971        C972   1.384       .  A
C971       C2006   1.478       .  S
C972        H974   1.082       .  S
N975        N976   1.325       .  A
N975        C979   1.343       .  A
N976        C977   1.352       .  A
C977        C978   1.391       .  A
C977        H980   1.082       .  S
C978        C979   1.380       .  A
C978       C1996   1.481       .  S
C979        H981   1.082       .  S
C982        C983   1.413       .  A
C982        C987   1.404       .  A
C982       C2236   1.481       .  S
C983        C984   1.412       .  A
C983        H988   1.083       .  S
C984        C985   1.403       .  A
C984       C1986   1.482       .  S
C985        C986   1.399       .  A
C985        H989   1.085       .  S
C986        C987   1.399       .  A
C986       C2009   1.476       .  S
C987        H990   1.085       .  S
N991        N992   1.325       .  A
N991        C995   1.354       .  A
N991       Cu999   2.115       .  S
N992        C993   1.343       .  A
N992       Cu998   2.075       .  S
C993        C994   1.381       .  A
C993        H996   1.082       .  S
C994        C995   1.393       .  A
C994       C1966   1.487       .  S
C995        H997   1.082       .  S
Cu998      N1001   2.074       .  S
Cu999      N1009   2.115       .  S
Cu1000     N1002   2.071       .  S
Cu1000     N1008   2.072       .  S
N1001      N1002   1.319       .  A
N1001      C1005   1.347       .  A
N1002      C1003   1.345       .  A
C1003      C1004   1.388       .  A
C1003      H1006   1.082       .  S
C1004      C1005   1.389       .  A
C1004      C1976   1.485       .  S
C1005      H1007   1.082       .  S
N1008      N1009   1.323       .  A
N1008      C1012   1.341       .  A
N1009      C1010   1.354       .  A
C1010      C1011   1.397       .  A
C1010      H1013   1.081       .  S
C1011      C1012   1.386       .  A
C1011      C2019   1.497       .  S
C1012      H1014   1.081       .  S
C1015      C1016   1.405       .  A
C1015      C1020   1.410       .  A
C1015      C1956   1.483       .  S
C1016      C1017   1.404       .  A
C1016      H1021   1.084       .  S
C1017      C1018   1.404       .  A
C1017      C1979   1.485       .  S
C1018      C1019   1.405       .  A
C1018      H1022   1.084       .  S
C1019      C1020   1.408       .  A
C1019      C2669   1.482       .  S
C1020      H1023   1.083       .  S
N1024      N1025   1.325       .  A
N1024      C1028   1.353       .  A
N1024     Cu1032   2.116       .  S
N1025      C1026   1.344       .  A
N1025     Cu1031   2.075       .  S
C1026      C1027   1.382       .  A
C1026      H1029   1.082       .  S
C1027      C1028   1.392       .  A
C1027      C1936   1.487       .  S
C1028      H1030   1.082       .  S
Cu1031     N1034   2.074       .  S
Cu1032     N1042   2.115       .  S
Cu1033     N1035   2.068       .  S
Cu1033     N1041   2.069       .  S
N1034      N1035   1.319       .  A
N1034      C1038   1.346       .  A
N1035      C1036   1.345       .  A
C1036      C1037   1.388       .  A
C1036      H1039   1.082       .  S
C1037      C1038   1.388       .  A
C1037      C1946   1.485       .  S
C1038      H1040   1.081       .  S
N1041      N1042   1.323       .  A
N1041      C1045   1.340       .  A
N1042      C1043   1.355       .  A
C1043      C1044   1.396       .  A
C1043      H1046   1.082       .  S
C1044      C1045   1.384       .  A
C1044      C1926   1.493       .  S
C1045      H1047   1.081       .  S
C1048      C1049   1.411       .  A
C1048      C1053   1.403       .  A
C1048      C1999   1.484       .  S
C1049      C1050   1.412       .  A
C1049      H1054   1.083       .  S
C1050      C1051   1.405       .  A
C1050      C1969   1.484       .  S
C1051      C1052   1.403       .  A
C1051      H1055   1.084       .  S
C1052      C1053   1.401       .  A
C1052      C1949   1.480       .  S
C1053      H1056   1.084       .  S
N1057      N1058   1.321       .  A
N1057      C1061   1.351       .  A
N1057     Cu1065   2.099   1_655  S
N1058      C1059   1.341       .  A
N1058     Cu1064   2.065   1_655  S
C1059      C1060   1.387       .  A
C1059      H1062   1.080       .  S
C1060      C1061   1.395       .  A
C1060      C2479   1.494       .  S
C1061      H1063   1.081       .  S
Cu1064     N1067   2.065       .  S
Cu1065     N1075   2.100       .  S
Cu1066     N1068   2.074       .  S
Cu1066     N1074   2.075       .  S
N1067      N1068   1.319       .  A
N1067      C1071   1.343       .  A
N1068      C1069   1.346       .  A
C1069      C1070   1.390       .  A
C1069      H1072   1.081       .  S
C1070      C1071   1.388       .  A
C1070      C1916   1.487       .  S
C1071      H1073   1.081       .  S
N1074      N1075   1.324       .  A
N1074      C1078   1.343       .  A
N1075      C1076   1.351       .  A
C1076      C1077   1.389       .  A
C1076      H1079   1.082       .  S
C1077      C1078   1.382       .  A
C1077      C2929   1.482       .  S
C1078      H1080   1.082       .  S
C1081      C1082   1.411       .  A
C1081      C1086   1.404       .  A
C1081      C1906   1.480       .  S
C1082      C1083   1.410       .  A
C1082      H1087   1.083       .  S
C1083      C1084   1.401       .  A
C1083      C3009   1.478       .  S
C1084      C1085   1.399       .  A
C1084      H1088   1.085       .  S
C1085      C1086   1.400       .  A
C1085      C1919   1.474       .  S
C1086      H1089   1.084       .  S
N1090      N1091   1.325       .  A
N1090      C1094   1.355       .  A
N1090     Cu1098   2.117       .  S
N1091      C1092   1.341       .  A
N1091     Cu1097   2.074       .  S
C1092      C1093   1.382       .  A
C1092      H1095   1.082       .  S
C1093      C1094   1.394       .  A
C1093      C1886   1.490       .  S
C1094      H1096   1.082       .  S
Cu1097     N1100   2.073       .  S
Cu1098     N1108   2.116       .  S
Cu1099     N1101   2.062       .  S
Cu1099     N1107   2.063       .  S
N1100      N1101   1.318       .  A
N1100      C1104   1.346       .  A
N1101      C1102   1.345       .  A
C1102      C1103   1.386       .  A
C1102      H1105   1.082       .  S
C1103      C1104   1.388       .  A
C1103      C1896   1.482       .  S
C1104      H1106   1.082       .  S
N1107      N1108   1.322       .  A
N1107      C1111   1.338       .  A
N1108      C1109   1.356       .  A
C1109      C1110   1.398       .  A
C1109      H1112   1.081       .  S
C1110      C1111   1.384       .  A
C1110      C2659   1.496       .  S
C1111      H1113   1.080       .  S
C1114      C1115   1.408       .  A
C1114      C1119   1.402       .  A
C1114      C2816   1.478       .  S
C1115      C1116   1.410       .  A
C1115      H1120   1.083       .  S
C1116      C1117   1.405       .  A
C1116      C2029   1.482       .  S
C1117      C1118   1.405       .  A
C1117      H1121   1.084       .  S
C1118      C1119   1.402       .  A
C1118      C1899   1.484       .  S
C1119      H1122   1.084       .  S
N1123      N1124   1.324       .  A
N1123      C1127   1.355       .  A
N1123     Cu1131   2.122       .  S
N1124      C1125   1.341       .  A
N1124     Cu1130   2.068       .  S
C1125      C1126   1.382       .  A
C1125      H1128   1.082       .  S
C1126      C1127   1.396       .  A
C1126      C1866   1.493       .  S
C1127      H1129   1.082       .  S
Cu1130     N1133   2.067       .  S
Cu1131     N1141   2.122   1_545  S
Cu1132     N1134   2.073       .  S
Cu1132     N1140   2.074   1_545  S
N1133      N1134   1.319       .  A
N1133      C1137   1.345       .  A
N1134      C1135   1.345       .  A
C1135      C1136   1.388       .  A
C1135      H1138   1.082       .  S
C1136      C1137   1.386       .  A
C1136      C1879   1.482       .  S
C1137      H1139   1.082       .  S
N1140      N1141   1.325       .  A
N1140      C1144   1.343       .  A
N1141      C1142   1.355       .  A
C1142      C1143   1.394       .  A
C1142      H1145   1.082       .  S
C1143      C1144   1.381       .  A
C1143      C2849   1.489       .  S
C1144      H1146   1.082       .  S
C1147      C1148   1.404       .  A
C1147      C1152   1.410       .  A
C1147      C1856   1.479       .  S
C1148      C1149   1.401       .  A
C1148      H1153   1.084       .  S
C1149      C1150   1.401       .  A
C1149      C1876   1.480       .  S
C1150      C1151   1.403       .  A
C1150      H1154   1.084       .  S
C1151      C1152   1.410       .  A
C1151      C1889   1.480       .  S
C1152      H1155   1.083       .  S
N1156      N1157   1.323       .  A
N1156      C1160   1.352       .  A
N1156     Cu1164   2.108       .  S
N1157      C1158   1.342       .  A
N1157     Cu1163   2.069       .  S
C1158      C1159   1.385       .  A
C1158      H1161   1.081       .  S
C1159      C1160   1.395       .  A
C1159      C1826   1.493       .  S
C1160      H1162   1.081       .  S
Cu1163     N1166   2.068       .  S
Cu1164     N1174   2.109       .  S
Cu1165     N1167   2.071       .  S
Cu1165     N1173   2.071       .  S
N1166      N1167   1.319       .  A
N1166      C1170   1.344       .  A
N1167      C1168   1.346       .  A
C1168      C1169   1.388       .  A
C1168      H1171   1.082       .  S
C1169      C1170   1.387       .  A
C1169      C1846   1.483       .  S
C1170      H1172   1.082       .  S
N1173      N1174   1.324       .  A
N1173      C1177   1.342       .  A
N1174      C1175   1.353       .  A
C1175      C1176   1.392       .  A
C1175      H1178   1.082       .  S
C1176      C1177   1.381       .  A
C1176      C1839   1.486       .  S
C1177      H1179   1.082       .  S
C1180      C1181   1.401       .  A
C1180      C1185   1.409       .  A
C1180      C2329   1.479       .  S
C1181      C1182   1.401       .  A
C1181      H1186   1.085       .  S
C1182      C1183   1.403       .  A
C1182      C1849   1.482       .  S
C1183      C1184   1.407       .  A
C1183      H1187   1.084       .  S
C1184      C1185   1.411       .  A
C1184      C1816   1.485       .  S
C1185      H1188   1.083       .  S
N1189      N1190   1.322       .  A
N1189      C1193   1.352       .  A
N1189     Cu1197   2.104       .  S
N1190      C1191   1.342       .  A
N1190     Cu1196   2.070       .  S
C1191      C1192   1.385       .  A
C1191      H1194   1.081       .  S
C1192      C1193   1.394       .  A
C1192      C1859   1.491       .  S
C1193      H1195   1.082       .  S
Cu1196     N1199   2.069       .  S
Cu1197     N1207   2.104       .  S
Cu1198     N1200   2.071       .  S
Cu1198     N1206   2.072       .  S
N1199      N1200   1.320       .  A
N1199      C1203   1.344       .  A
N1200      C1201   1.345       .  A
C1201      C1202   1.387       .  A
C1201      H1204   1.082       .  S
C1202      C1203   1.386       .  A
C1202      C1806   1.481       .  S
C1203      H1205   1.082       .  S
N1206      N1207   1.324       .  A
N1206      C1210   1.343       .  A
N1207      C1208   1.351       .  A
C1208      C1209   1.390       .  A
C1208      H1211   1.082       .  S
C1209      C1210   1.381       .  A
C1209      C1796   1.482       .  S
C1210      H1212   1.082       .  S
C1213      C1214   1.413       .  A
C1213      C1218   1.405       .  A
C1213      C2999   1.488       .  S
C1214      C1215   1.413       .  A
C1214      H1219   1.083       .  S
C1215      C1216   1.405       .  A
C1215      C2599   1.484       .  S
C1216      C1217   1.400       .  A
C1216      H1220   1.084       .  S
C1217      C1218   1.399       .  A
C1217      C1809   1.484       .  S
C1218      H1221   1.084       .  S
N1222      N1223   1.324       .  A
N1222      C1226   1.355       .  A
N1222     Cu1230   2.118       .  S
N1223      C1224   1.343       .  A
N1223     Cu1229   2.070       .  S
C1224      C1225   1.380       .  A
C1224      H1227   1.082       .  S
C1225      C1226   1.393       .  A
C1225      C2096   1.485       .  S
C1226      H1228   1.082       .  S
Cu1229     N1232   2.069       .  S
Cu1230     N1240   2.117       .  S
Cu1231     N1233   2.077       .  S
Cu1231     N1239   2.078       .  S
N1232      N1233   1.319       .  A
N1232      C1236   1.344       .  A
N1233      C1234   1.347       .  A
C1234      C1235   1.389       .  A
C1234      H1237   1.082       .  S
C1235      C1236   1.386       .  A
C1235      C1786   1.484       .  S
C1236      H1238   1.082       .  S
N1239      N1240   1.325       .  A
N1239      C1243   1.343       .  A
N1240      C1241   1.354       .  A
C1241      C1242   1.394       .  A
C1241      H1244   1.082       .  S
C1242      C1243   1.385       .  A
C1242      C1989   1.494       .  S
C1243      H1245   1.081       .  S
C1246      C1247   1.404       .  A
C1246      C1251   1.409       .  A
C1246      C1836   1.481       .  S
C1247      C1248   1.404       .  A
C1247      H1252   1.084       .  S
C1248      C1249   1.402       .  A
C1248      C1789   1.484       .  S
C1249      C1250   1.404       .  A
C1249      H1253   1.084       .  S
C1250      C1251   1.409       .  A
C1250      C1799   1.482       .  S
C1251      H1254   1.083       .  S
N1255      N1256   1.323       .  A
N1255      C1259   1.353       .  A
N1255     Cu1263   2.112       .  S
N1256      C1257   1.343       .  A
N1256     Cu1262   2.068       .  S
C1257      C1258   1.383       .  A
C1257      H1260   1.082       .  S
C1258      C1259   1.394       .  A
C1258      C1909   1.490       .  S
C1259      H1261   1.082       .  S
Cu1262     N1265   2.068       .  S
Cu1263     N1273   2.113       .  S
Cu1264     N1266   2.079       .  S
Cu1264     N1272   2.079       .  S
N1265      N1266   1.320       .  A
N1265      C1269   1.344       .  A
N1266      C1267   1.347       .  A
C1267      C1268   1.389       .  A
C1267      H1270   1.082       .  S
C1268      C1269   1.386       .  A
C1268      C1776   1.485       .  S
C1269      H1271   1.082       .  S
N1272      N1273   1.325       .  A
N1272      C1276   1.344       .  A
N1273      C1274   1.353       .  A
C1274      C1275   1.392       .  A
C1274      H1277   1.082       .  S
C1275      C1276   1.382       .  A
C1275      C1766   1.488       .  S
C1276      H1278   1.082       .  S
C1279      C1280   1.406       .  A
C1279      C1284   1.410       .  A
C1279      C2189   1.482       .  S
C1280      C1281   1.403       .  A
C1280      H1285   1.084       .  S
C1281      C1282   1.401       .  A
C1281      C1779   1.485       .  S
C1282      C1283   1.403       .  A
C1282      H1286   1.084       .  S
C1283      C1284   1.409       .  A
C1283      C1829   1.479       .  S
C1284      H1287   1.083       .  S
N1288      N1289   1.323       .  A
N1288      C1292   1.354       .  A
N1288     Cu1296   2.109       .  S
N1289      C1290   1.341       .  A
N1289     Cu1295   2.065       .  S
C1290      C1291   1.382       .  A
C1290      H1293   1.082       .  S
C1291      C1292   1.394       .  A
C1291      C2519   1.489       .  S
C1292      H1294   1.082       .  S
Cu1295     N1298   2.065       .  S
Cu1296     N1306   2.110   1_554  S
Cu1297     N1299   2.079       .  S
Cu1297     N1305   2.079   1_554  S
N1298      N1299   1.320       .  A
N1298      C1302   1.344       .  A
N1299      C1300   1.347       .  A
C1300      C1301   1.388       .  A
C1300      H1303   1.082       .  S
C1301      C1302   1.385       .  A
C1301      C1756   1.482       .  S
C1302      H1304   1.082       .  S
N1305      N1306   1.325       .  A
N1305      C1309   1.344       .  A
N1306      C1307   1.352       .  A
C1307      C1308   1.391       .  A
C1307      H1310   1.082       .  S
C1308      C1309   1.382       .  A
C1308      C2159   1.486       .  S
C1309      H1311   1.082       .  S
C1312      C1313   1.410       .  A
C1312      C1317   1.404       .  A
C1312      C2719   1.479       .  S
C1313      C1314   1.410       .  A
C1313      H1318   1.083       .  S
C1314      C1315   1.405       .  A
C1314      C1746   1.480       .  S
C1315      C1316   1.399       .  A
C1315      H1319   1.085       .  S
C1316      C1317   1.400       .  A
C1316      C1759   1.477       .  S
C1317      H1320   1.084       .  S
N1321      N1322   1.324       .  A
N1321      C1325   1.353       .  A
N1321     Cu1329   2.108       .  S
N1322      C1323   1.342       .  A
N1322     Cu1328   2.069       .  S
C1323      C1324   1.380       .  A
C1323      H1326   1.082       .  S
C1324      C1325   1.391       .  A
C1324      C1959   1.482       .  S
C1325      H1327   1.082       .  S
Cu1328     N1331   2.068       .  S
Cu1329     N1339   2.107       .  S
Cu1330     N1332   2.069       .  S
Cu1330     N1338   2.070       .  S
N1331      N1332   1.319       .  A
N1331      C1335   1.345       .  A
N1332      C1333   1.345       .  A
C1333      C1334   1.387       .  A
C1333      H1336   1.082       .  S
C1334      C1335   1.387       .  A
C1334      C1736   1.482       .  S
C1335      H1337   1.082       .  S
N1338      N1339   1.323       .  A
N1338      C1342   1.341       .  A
N1339      C1340   1.353       .  A
C1340      C1341   1.394       .  A
C1340      H1343   1.082       .  S
C1341      C1342   1.384       .  A
C1341      C1749   1.491       .  S
C1342      H1344   1.081       .  S
C1345      C1346   1.403       .  A
C1345      C1350   1.410       .  A
C1345      C2279   1.483       .  S
C1346      C1347   1.403       .  A
C1346      H1351   1.084       .  S
C1347      C1348   1.403       .  A
C1347      C1739   1.485       .  S
C1348      C1349   1.405       .  A
C1348      H1352   1.084       .  S
C1349      C1350   1.411       .  A
C1349      C1729   1.486       .  S
C1350      H1353   1.083       .  S
N1354      N1355   1.323       .  A
N1354      C1358   1.355       .  A
N1354     Cu1362   2.111       .  S
N1355      C1356   1.339       .  A
N1355     Cu1361   2.068       .  S
C1356      C1357   1.383       .  A
C1356      H1359   1.081       .  S
C1357      C1358   1.395       .  A
C1357      C1706   1.491       .  S
C1358      H1360   1.082       .  S
Cu1361     N1364   2.068       .  S
Cu1362     N1372   2.112       .  S
Cu1363     N1365   2.074       .  S
Cu1363     N1371   2.075       .  S
N1364      N1365   1.319       .  A
N1364      C1368   1.346       .  A
N1365      C1366   1.346       .  A
C1366      C1367   1.388       .  A
C1366      H1369   1.082       .  S
C1367      C1368   1.387       .  A
C1367      C1716   1.483       .  S
C1368      H1370   1.082       .  S
N1371      N1372   1.325       .  A
N1371      C1375   1.343       .  A
N1372      C1373   1.353       .  A
C1373      C1374   1.391       .  A
C1373      H1376   1.082       .  S
C1374      C1375   1.380       .  A
C1374      C1726   1.484       .  S
C1375      H1377   1.082       .  S
C1378      C1379   1.404       .  A
C1378      C1383   1.411       .  A
C1378      C2439   1.485       .  S
C1379      C1380   1.404       .  A
C1379      H1384   1.084       .  S
C1380      C1381   1.404       .  A
C1380      C1719   1.485       .  S
C1381      C1382   1.405       .  A
C1381      H1385   1.084       .  S
C1382      C1383   1.412       .  A
C1382      C1939   1.488       .  S
C1383      H1386   1.083       .  S
N1387      N1388   1.324       .  A
N1387      C1391   1.352       .  A
N1387     Cu1395   2.108       .  S
N1388      C1389   1.343       .  A
N1388     Cu1394   2.071       .  S
C1389      C1390   1.381       .  A
C1389      H1392   1.082       .  S
C1390      C1391   1.391       .  A
C1390      C1679   1.483       .  S
C1391      H1393   1.082       .  S
Cu1394     N1397   2.071       .  S
Cu1395     N1405   2.107       .  S
Cu1396     N1398   2.067       .  S
Cu1396     N1404   2.066       .  S
N1397      N1398   1.319       .  A
N1397      C1401   1.345       .  A
N1398      C1399   1.345       .  A
C1399      C1400   1.385       .  A
C1399      H1402   1.082       .  S
C1400      C1401   1.386       .  A
C1400      C1696   1.479       .  S
C1401      H1403   1.082       .  S
N1404      N1405   1.323       .  A
N1404      C1408   1.340       .  A
N1405      C1406   1.354       .  A
C1406      C1407   1.395       .  A
C1406      H1409   1.082       .  S
C1407      C1408   1.382       .  A
C1407      C1686   1.489       .  S
C1408      H1410   1.081       .  S
C1411      C1412   1.413       .  A
C1411      C1416   1.402       .  A
C1411      C2709   1.486       .  S
C1412      C1413   1.414       .  A
C1412      H1417   1.083       .  S
C1413      C1414   1.406       .  A
C1413      C1769   1.487       .  S
C1414      C1415   1.402       .  A
C1414      H1418   1.084       .  S
C1415      C1416   1.401       .  A
C1415      C1699   1.480       .  S
C1416      H1419   1.085       .  S
N1420      N1421   1.322       .  A
N1420      C1424   1.355       .  A
N1420     Cu1428   2.118       .  S
N1421      C1422   1.341       .  A
N1421     Cu1427   2.068       .  S
C1422      C1423   1.386       .  A
C1422      H1425   1.080       .  S
C1423      C1424   1.399       .  A
C1423      C1819   1.500       .  S
C1424      H1426   1.081       .  S
Cu1427     N1430   2.069       .  S
Cu1428     N1438   2.119       .  S
Cu1429     N1431   2.077       .  S
Cu1429     N1437   2.078       .  S
N1430      N1431   1.320       .  A
N1430      C1434   1.345       .  A
N1431      C1432   1.346       .  A
C1432      C1433   1.388       .  A
C1432      H1435   1.082       .  S
C1433      C1434   1.387       .  A
C1433      C1666   1.483       .  S
C1434      H1436   1.082       .  S
N1437      N1438   1.324       .  A
N1437      C1441   1.344       .  A
N1438      C1439   1.354       .  A
C1439      C1440   1.395       .  A
C1439      H1442   1.082       .  S
C1440      C1441   1.384       .  A
C1440      C2839   1.494       .  S
C1441      H1443   1.082       .  S
C1444      C1445   1.405       .  A
C1444      C1449   1.408       .  A
C1444      C1709   1.481       .  S
C1445      C1446   1.404       .  A
C1445      H1450   1.084       .  S
C1446      C1447   1.403       .  A
C1446      C1669   1.489       .  S
C1447      C1448   1.405       .  A
C1447      H1451   1.084       .  S
C1448      C1449   1.408       .  A
C1448      C1689   1.478       .  S
C1449      H1452   1.083       .  S
N1453      N1454   1.324       .  A
N1453      C1457   1.353       .  A
N1453     Cu1461   2.112       .  S
N1454      C1455   1.343       .  A
N1454     Cu1460   2.067       .  S
C1455      C1456   1.381       .  A
C1455      H1458   1.082       .  S
C1456      C1457   1.392       .  A
C1456      C1646   1.485       .  S
C1457      H1459   1.082       .  S
Cu1460     N1463   2.067       .  S
Cu1461     N1471   2.113       .  S
Cu1462     N1464   2.076       .  S
Cu1462     N1470   2.077       .  S
N1463      N1464   1.320       .  A
N1463      C1467   1.344       .  A
N1464      C1465   1.347       .  A
C1465      C1466   1.387       .  A
C1465      H1468   1.082       .  S
C1466      C1467   1.385       .  A
C1466      C1656   1.479       .  S
C1467      H1469   1.082       .  S
N1470      N1471   1.325       .  A
N1470      C1474   1.342       .  A
N1471      C1472   1.355       .  A
C1472      C1473   1.393       .  A
C1472      H1475   1.082       .  S
C1473      C1474   1.382       .  A
C1473      C2986   1.487       .  S
C1474      H1476   1.082       .  S
C1477      C1478   1.412       .  A
C1477      C1482   1.404       .  A
C1477      C1869   1.482       .  S
C1478      C1479   1.412       .  A
C1478      H1483   1.083       .  S
C1479      C1480   1.405       .  A
C1479      C1636   1.484       .  S
C1480      C1481   1.401       .  A
C1480      H1484   1.084       .  S
C1481      C1482   1.400       .  A
C1481      C1659   1.480       .  S
C1482      H1485   1.084       .  S
N1486      N1487   1.324       .  A
N1486      C1490   1.353       .  A
N1486     Cu1494   2.109   1_455  S
N1487      C1488   1.341       .  A
N1487     Cu1493   2.065       .  S
C1488      C1489   1.379       .  A
C1488      H1491   1.082       .  S
C1489      C1490   1.391       .  A
C1489      C2049   1.482       .  S
C1490      H1492   1.082       .  S
Cu1493     N1496   2.064       .  S
Cu1494     N1504   2.109       .  S
Cu1495     N1497   2.071       .  S
Cu1495     N1503   2.071   1_455  S
N1496      N1497   1.319       .  A
N1496      C1500   1.344       .  A
N1497      C1498   1.345       .  A
C1498      C1499   1.387       .  A
C1498      H1501   1.082       .  S
C1499      C1500   1.385       .  A
C1499      C1626   1.478       .  S
C1500      H1502   1.082       .  S
N1503      N1504   1.324       .  A
N1503      C1507   1.341       .  A
N1504      C1505   1.354       .  A
C1505      C1506   1.394       .  A
C1505      H1508   1.082       .  S
C1506      C1507   1.383       .  A
C1506      C1616   1.489       .  S
C1507      H1509   1.082       .  S
C1510      C1511   1.409       .  A
C1510      C1515   1.403       .  A
C1510      C1649   1.482       .  S
C1511      C1512   1.410       .  A
C1511      H1516   1.083       .  S
C1512      C1513   1.404       .  A
C1512      C1676   1.483       .  S
C1513      C1514   1.403       .  A
C1513      H1517   1.084       .  S
C1514      C1515   1.403       .  A
C1514      C1629   1.484       .  S
C1515      H1518   1.084       .  S
N1519      N1520   1.324       .  A
N1519      C1523   1.352       .  A
N1519     Cu1527   2.102       .  S
N1520      C1521   1.344       .  A
N1520     Cu1526   2.079       .  S
C1521      C1522   1.384       .  A
C1521      H1524   1.082       .  S
C1522      C1523   1.391       .  A
C1522      C2219   1.487       .  S
C1523      H1525   1.082       .  S
Cu1526     N1529   2.079       .  S
Cu1527     N1537   2.102       .  S
Cu1528     N1530   2.076       .  S
Cu1528     N1536   2.076       .  S
N1529      N1530   1.321       .  A
N1529      C1533   1.346       .  A
N1530      C1531   1.346       .  A
C1531      C1532   1.387       .  A
C1531      H1534   1.082       .  S
C1532      C1533   1.388       .  A
C1532      C1606   1.485       .  S
C1533      H1535   1.082       .  S
N1536      N1537   1.324       .  A
N1536      C1540   1.344       .  A
N1537      C1538   1.352       .  A
C1538      C1539   1.390       .  A
C1538      H1541   1.082       .  S
C1539      C1540   1.382       .  A
C1539      C1599   1.484       .  S
C1540      H1542   1.082       .  S
C1543      C1544   1.409       .  A
C1543      C1548   1.405       .  A
C1543      C1619   1.480       .  S
C1544      C1545   1.409       .  A
C1544      H1549   1.083       .  S
C1545      C1546   1.406       .  A
C1545      C1929   1.483       .  S
C1546      C1547   1.403       .  A
C1546      H1550   1.084       .  S
C1547      C1548   1.403       .  A
C1547      C1609   1.488       .  S
C1548      H1551   1.084       .  S
N1552      N1553   1.323       .  A
N1552      C1556   1.355       .  A
N1552     Cu1560   2.114   1_455  S
N1553      C1554   1.341       .  A
N1553     Cu1559   2.066   1_455  S
C1554      C1555   1.384       .  A
C1554      H1557   1.081       .  S
C1555      C1556   1.396       .  A
C1555      C1639   1.494       .  S
C1556      H1558   1.082       .  S
Cu1559     N1562   2.065       .  S
Cu1560     N1570   2.115       .  S
Cu1561     N1563   2.070       .  S
Cu1561     N1569   2.071       .  S
N1562      N1563   1.319       .  A
N1562      C1566   1.343       .  A
N1563      C1564   1.347       .  A
C1564      C1565   1.388       .  A
C1564      H1567   1.082       .  S
C1565      C1566   1.386       .  A
C1565      C1586   1.482       .  S
C1566      H1568   1.082       .  S
N1569      N1570   1.325       .  A
N1569      C1573   1.342       .  A
N1570      C1571   1.354       .  A
C1571      C1572   1.391       .  A
C1571      H1574   1.082       .  S
C1572      C1573   1.380       .  A
C1572      C2549   1.483       .  S
C1573      H1575   1.082       .  S
C1576      C1577   1.405       .  A
C1576      C1581   1.411       .  A
C1576      C2409   1.485       .  S
C1577      C1578   1.402       .  A
C1577      H1582   1.084       .  S
C1578      C1579   1.402       .  A
C1578      C1589   1.481       .  S
C1579      C1580   1.403       .  A
C1579      H1583   1.084       .  S
C1580      C1581   1.410       .  A
C1580      C1596   1.483       .  S
C1581      H1584   1.083       .  S
C1585      C1586   1.406       .  A
C1585      C1590   1.400       .  A
C1585      H1591   1.082       .  S
C1586      C1587   1.406       .  A
C1587      C1588   1.397       .  A
C1587      H1592   1.082       .  S
C1588      C1589   1.403       .  A
C1588      H1593   1.083       .  S
C1589      C1590   1.405       .  A
C1590      H1594   1.083       .  S
C1595      C1596   1.406       .  A
C1595      C1600   1.403       .  A
C1595      H1601   1.083       .  S
C1596      C1597   1.402       .  A
C1597      C1598   1.401       .  A
C1597      H1602   1.083       .  S
C1598      C1599   1.406       .  A
C1598      H1603   1.083       .  S
C1599      C1600   1.404       .  A
C1600      H1604   1.083       .  S
C1605      C1606   1.406       .  A
C1605      C1610   1.400       .  A
C1605      H1611   1.083       .  S
C1606      C1607   1.406       .  A
C1607      C1608   1.400       .  A
C1607      H1612   1.082       .  S
C1608      C1609   1.406       .  A
C1608      H1613   1.083       .  S
C1609      C1610   1.406       .  A
C1610      H1614   1.083       .  S
C1615      C1616   1.408       .  A
C1615      C1620   1.397       .  A
C1615      H1621   1.082       .  S
C1616      C1617   1.407       .  A
C1617      C1618   1.407       .  A
C1617      H1622   1.083       .  S
C1618      C1619   1.406       .  A
C1618      H1623   1.083       .  S
C1619      C1620   1.400       .  A
C1620      H1624   1.083       .  S
C1625      C1626   1.405       .  A
C1625      C1630   1.399       .  A
C1625      H1631   1.083       .  S
C1626      C1627   1.404       .  A
C1627      C1628   1.398       .  A
C1627      H1632   1.083       .  S
C1628      C1629   1.406       .  A
C1628      H1633   1.083       .  S
C1629      C1630   1.405       .  A
C1630      H1634   1.083       .  S
C1635      C1636   1.401       .  A
C1635      C1640   1.397       .  A
C1635      H1641   1.083       .  S
C1636      C1637   1.406       .  A
C1637      C1638   1.408       .  A
C1637      H1642   1.083       .  S
C1638      C1639   1.409       .  A
C1638      H1643   1.082       .  S
C1639      C1640   1.408       .  A
C1640      H1644   1.082       .  S
C1645      C1646   1.405       .  A
C1645      C1650   1.403       .  A
C1645      H1651   1.083       .  S
C1646      C1647   1.408       .  A
C1647      C1648   1.401       .  A
C1647      H1652   1.083       .  S
C1648      C1649   1.402       .  A
C1648      H1653   1.083       .  S
C1649      C1650   1.406       .  A
C1650      H1654   1.083       .  S
C1655      C1656   1.405       .  A
C1655      C1660   1.398       .  A
C1655      H1661   1.083       .  S
C1656      C1657   1.405       .  A
C1657      C1658   1.401       .  A
C1657      H1662   1.083       .  S
C1658      C1659   1.405       .  A
C1658      H1663   1.083       .  S
C1659      C1660   1.403       .  A
C1660      H1664   1.083       .  S
C1665      C1666   1.405       .  A
C1665      C1670   1.400       .  A
C1665      H1671   1.083       .  S
C1666      C1667   1.405       .  A
C1667      C1668   1.399       .  A
C1667      H1672   1.083       .  S
C1668      C1669   1.406       .  A
C1668      H1673   1.083       .  S
C1669      C1670   1.406       .  A
C1670      H1674   1.083       .  S
C1675      C1676   1.406       .  A
C1675      C1680   1.402       .  A
C1675      H1681   1.083       .  S
C1676      C1677   1.403       .  A
C1677      C1678   1.401       .  A
C1677      H1682   1.083       .  S
C1678      C1679   1.407       .  A
C1678      H1683   1.083       .  S
C1679      C1680   1.404       .  A
C1680      H1684   1.083       .  S
C1685      C1686   1.409       .  A
C1685      C1690   1.397       .  A
C1685      H1691   1.082       .  S
C1686      C1687   1.407       .  A
C1687      C1688   1.405       .  A
C1687      H1692   1.082       .  S
C1688      C1689   1.405       .  A
C1688      H1693   1.083       .  S
C1689      C1690   1.399       .  A
C1690      H1694   1.083       .  S
C1695      C1696   1.405       .  A
C1695      C1700   1.399       .  A
C1695      H1701   1.083       .  S
C1696      C1697   1.404       .  A
C1697      C1698   1.399       .  A
C1697      H1702   1.083       .  S
C1698      C1699   1.404       .  A
C1698      H1703   1.083       .  S
C1699      C1700   1.404       .  A
C1700      H1704   1.083       .  S
C1705      C1706   1.409       .  A
C1705      C1710   1.409       .  A
C1705      H1711   1.082       .  S
C1706      C1707   1.407       .  A
C1707      C1708   1.394       .  A
C1707      H1712   1.082       .  S
C1708      C1709   1.400       .  A
C1708      H1713   1.084       .  S
C1709      C1710   1.406       .  A
C1710      H1714   1.083       .  S
C1715      C1716   1.405       .  A
C1715      C1720   1.400       .  A
C1715      H1721   1.083       .  S
C1716      C1717   1.405       .  A
C1717      C1718   1.400       .  A
C1717      H1722   1.083       .  S
C1718      C1719   1.405       .  A
C1718      H1723   1.083       .  S
C1719      C1720   1.405       .  A
C1720      H1724   1.083       .  S
C1725      C1726   1.406       .  A
C1725      C1730   1.401       .  A
C1725      H1731   1.083       .  S
C1726      C1727   1.404       .  A
C1727      C1728   1.404       .  A
C1727      H1732   1.083       .  S
C1728      C1729   1.408       .  A
C1728      H1733   1.083       .  S
C1729      C1730   1.403       .  A
C1730      H1734   1.083       .  S
C1735      C1736   1.405       .  A
C1735      C1740   1.398       .  A
C1735      H1741   1.082       .  S
C1736      C1737   1.406       .  A
C1737      C1738   1.400       .  A
C1737      H1742   1.083       .  S
C1738      C1739   1.406       .  A
C1738      H1743   1.083       .  S
C1739      C1740   1.405       .  A
C1740      H1744   1.083       .  S
C1745      C1746   1.405       .  A
C1745      C1750   1.407       .  A
C1745      H1751   1.083       .  S
C1746      C1747   1.400       .  A
C1747      C1748   1.395       .  A
C1747      H1752   1.084       .  S
C1748      C1749   1.408       .  A
C1748      H1753   1.082       .  S
C1749      C1750   1.409       .  A
C1750      H1754   1.082       .  S
C1755      C1756   1.406       .  A
C1755      C1760   1.399       .  A
C1755      H1761   1.083       .  S
C1756      C1757   1.407       .  A
C1757      C1758   1.399       .  A
C1757      H1762   1.083       .  S
C1758      C1759   1.402       .  A
C1758      H1763   1.083       .  S
C1759      C1760   1.403       .  A
C1760      H1764   1.083       .  S
C1765      C1766   1.405       .  A
C1765      C1770   1.405       .  A
C1765      H1771   1.083       .  S
C1766      C1767   1.407       .  A
C1767      C1768   1.403       .  A
C1767      H1772   1.083       .  S
C1768      C1769   1.403       .  A
C1768      H1773   1.083       .  S
C1769      C1770   1.407       .  A
C1770      H1774   1.083       .  S
C1775      C1776   1.406       .  A
C1775      C1780   1.398       .  A
C1775      H1781   1.082       .  S
C1776      C1777   1.406       .  A
C1777      C1778   1.400       .  A
C1777      H1782   1.082       .  S
C1778      C1779   1.405       .  A
C1778      H1783   1.083       .  S
C1779      C1780   1.404       .  A
C1780      H1784   1.083       .  S
C1785      C1786   1.406       .  A
C1785      C1790   1.399       .  A
C1785      H1791   1.082       .  S
C1786      C1787   1.406       .  A
C1787      C1788   1.400       .  A
C1787      H1792   1.083       .  S
C1788      C1789   1.405       .  A
C1788      H1793   1.083       .  S
C1789      C1790   1.404       .  A
C1790      H1794   1.083       .  S
C1795      C1796   1.404       .  A
C1795      C1800   1.401       .  A
C1795      H1801   1.083       .  S
C1796      C1797   1.407       .  A
C1797      C1798   1.401       .  A
C1797      H1802   1.083       .  S
C1798      C1799   1.403       .  A
C1798      H1803   1.083       .  S
C1799      C1800   1.406       .  A
C1800      H1804   1.083       .  S
C1805      C1806   1.404       .  A
C1805      C1810   1.398       .  A
C1805      H1811   1.083       .  S
C1806      C1807   1.406       .  A
C1807      C1808   1.399       .  A
C1807      H1812   1.082       .  S
C1808      C1809   1.405       .  A
C1808      H1813   1.083       .  S
C1809      C1810   1.406       .  A
C1810      H1814   1.083       .  S
C1815      C1816   1.405       .  A
C1815      C1820   1.408       .  A
C1815      H1821   1.083       .  S
C1816      C1817   1.400       .  A
C1817      C1818   1.398       .  A
C1817      H1822   1.083       .  S
C1818      C1819   1.411       .  A
C1818      H1823   1.080       .  S
C1819      C1820   1.410       .  A
C1820      H1824   1.082       .  S
C1825      C1826   1.408       .  A
C1825      C1830   1.405       .  A
C1825      H1831   1.082       .  S
C1826      C1827   1.409       .  A
C1827      C1828   1.398       .  A
C1827      H1832   1.081       .  S
C1828      C1829   1.401       .  A
C1828      H1833   1.083       .  S
C1829      C1830   1.404       .  A
C1830      H1834   1.083       .  S
C1835      C1836   1.401       .  A
C1835      C1840   1.399       .  A
C1835      H1841   1.083       .  S
C1836      C1837   1.406       .  A
C1837      C1838   1.405       .  A
C1837      H1842   1.083       .  S
C1838      C1839   1.406       .  A
C1838      H1843   1.083       .  S
C1839      C1840   1.407       .  A
C1840      H1844   1.083       .  S
C1845      C1846   1.405       .  A
C1845      C1850   1.397       .  A
C1845      H1851   1.082       .  S
C1846      C1847   1.407       .  A
C1847      C1848   1.401       .  A
C1847      H1852   1.082       .  S
C1848      C1849   1.404       .  A
C1848      H1853   1.083       .  S
C1849      C1850   1.404       .  A
C1850      H1854   1.083       .  S
C1855      C1856   1.400       .  A
C1855      C1860   1.398       .  A
C1855      H1861   1.083       .  S
C1856      C1857   1.404       .  A
C1857      C1858   1.406       .  A
C1857      H1862   1.083       .  S
C1858      C1859   1.408       .  A
C1858      H1863   1.082       .  S
C1859      C1860   1.408       .  A
C1860      H1864   1.082       .  S
C1865      C1866   1.407       .  A
C1865      C1870   1.407       .  A
C1865      H1871   1.082       .  S
C1866      C1867   1.409       .  A
C1867      C1868   1.399       .  A
C1867      H1872   1.082       .  S
C1868      C1869   1.401       .  A
C1868      H1873   1.083       .  S
C1869      C1870   1.405       .  A
C1870      H1874   1.083       .  S
C1875      C1876   1.404       .  A
C1875      C1880   1.400       .  A
C1875      H1881   1.083       .  S
C1876      C1877   1.403       .  A
C1877      C1878   1.398       .  A
C1877      H1882   1.083       .  S
C1878      C1879   1.405       .  A
C1878      H1883   1.082       .  S
C1879      C1880   1.406       .  A
C1880      H1884   1.083       .  S
C1885      C1886   1.408       .  A
C1885      C1890   1.398       .  A
C1885      H1891   1.082       .  S
C1886      C1887   1.407       .  A
C1887      C1888   1.407       .  A
C1887      H1892   1.083       .  S
C1888      C1889   1.406       .  A
C1888      H1893   1.083       .  S
C1889      C1890   1.400       .  A
C1890      H1894   1.083       .  S
C1895      C1896   1.406       .  A
C1895      C1900   1.400       .  A
C1895      H1901   1.083       .  S
C1896      C1897   1.404       .  A
C1897      C1898   1.398       .  A
C1897      H1902   1.083       .  S
C1898      C1899   1.405       .  A
C1898      H1903   1.083       .  S
C1899      C1900   1.405       .  A
C1900      H1904   1.083       .  S
C1905      C1906   1.401       .  A
C1905      C1910   1.401       .  A
C1905      H1911   1.083       .  S
C1906      C1907   1.405       .  A
C1907      C1908   1.404       .  A
C1907      H1912   1.083       .  S
C1908      C1909   1.406       .  A
C1908      H1913   1.082       .  S
C1909      C1910   1.409       .  A
C1910      H1914   1.082       .  S
C1915      C1916   1.408       .  A
C1915      C1920   1.400       .  A
C1915      H1921   1.081       .  S
C1916      C1917   1.408       .  A
C1917      C1918   1.397       .  A
C1917      H1922   1.081       .  S
C1918      C1919   1.400       .  A
C1918      H1923   1.084       .  S
C1919      C1920   1.401       .  A
C1920      H1924   1.083       .  S
C1925      C1926   1.409       .  A
C1925      C1930   1.409       .  A
C1925      H1931   1.082       .  S
C1926      C1927   1.408       .  A
C1927      C1928   1.396       .  A
C1927      H1932   1.082       .  S
C1928      C1929   1.400       .  A
C1928      H1933   1.084       .  S
C1929      C1930   1.406       .  A
C1930      H1934   1.083       .  S
C1935      C1936   1.405       .  A
C1935      C1940   1.405       .  A
C1935      H1941   1.083       .  S
C1936      C1937   1.407       .  A
C1937      C1938   1.402       .  A
C1937      H1942   1.083       .  S
C1938      C1939   1.403       .  A
C1938      H1943   1.083       .  S
C1939      C1940   1.408       .  A
C1940      H1944   1.083       .  S
C1945      C1946   1.407       .  A
C1945      C1950   1.400       .  A
C1945      H1951   1.082       .  S
C1946      C1947   1.406       .  A
C1947      C1948   1.399       .  A
C1947      H1952   1.082       .  S
C1948      C1949   1.404       .  A
C1948      H1953   1.083       .  S
C1949      C1950   1.403       .  A
C1950      H1954   1.083       .  S
C1955      C1956   1.407       .  A
C1955      C1960   1.404       .  A
C1955      H1961   1.083       .  S
C1956      C1957   1.402       .  A
C1957      C1958   1.399       .  A
C1957      H1962   1.083       .  S
C1958      C1959   1.406       .  A
C1958      H1963   1.083       .  S
C1959      C1960   1.404       .  A
C1960      H1964   1.083       .  S
C1965      C1966   1.407       .  A
C1965      C1970   1.400       .  A
C1965      H1971   1.083       .  S
C1966      C1967   1.406       .  A
C1967      C1968   1.406       .  A
C1967      H1972   1.083       .  S
C1968      C1969   1.406       .  A
C1968      H1973   1.083       .  S
C1969      C1970   1.402       .  A
C1970      H1974   1.083       .  S
C1975      C1976   1.406       .  A
C1975      C1980   1.399       .  A
C1975      H1981   1.082       .  S
C1976      C1977   1.406       .  A
C1977      C1978   1.401       .  A
C1977      H1982   1.082       .  S
C1978      C1979   1.405       .  A
C1978      H1983   1.083       .  S
C1979      C1980   1.404       .  A
C1980      H1984   1.083       .  S
C1985      C1986   1.406       .  A
C1985      C1990   1.408       .  A
C1985      H1991   1.083       .  S
C1986      C1987   1.401       .  A
C1987      C1988   1.397       .  A
C1987      H1992   1.084       .  S
C1988      C1989   1.408       .  A
C1988      H1993   1.082       .  S
C1989      C1990   1.409       .  A
C1990      H1994   1.082       .  S
C1995      C1996   1.403       .  A
C1995      C2000   1.402       .  A
C1995      H2001   1.083       .  S
C1996      C1997   1.406       .  A
C1997      C1998   1.403       .  A
C1997      H2002   1.083       .  S
C1998      C1999   1.404       .  A
C1998      H2003   1.083       .  S
C1999      C2000   1.406       .  A
C2000      H2004   1.083       .  S
C2005      C2006   1.405       .  A
C2005      C2010   1.397       .  A
C2005      H2011   1.083       .  S
C2006      C2007   1.405       .  A
C2007      C2008   1.399       .  A
C2007      H2012   1.083       .  S
C2008      C2009   1.403       .  A
C2008      H2013   1.083       .  S
C2009      C2010   1.402       .  A
C2010      H2014   1.083       .  S
C2015      C2016   1.402       .  A
C2015      C2020   1.397       .  A
C2015      H2021   1.084       .  S
C2016      C2017   1.406       .  A
C2017      C2018   1.408       .  A
C2017      H2022   1.083       .  S
C2018      C2019   1.409       .  A
C2018      H2023   1.082       .  S
C2019      C2020   1.409       .  A
C2020      H2024   1.081       .  S
C2025      C2026   1.408       .  A
C2025      C2030   1.400       .  A
C2025      H2031   1.083       .  S
C2026      C2027   1.406       .  A
C2027      C2028   1.405       .  A
C2027      H2032   1.083       .  S
C2028      C2029   1.406       .  A
C2028      H2033   1.083       .  S
C2029      C2030   1.401       .  A
C2030      H2034   1.083       .  S
C2035      C2036   1.406       .  A
C2035      C2040   1.401       .  A
C2035      H2041   1.083       .  S
C2036      C2037   1.405       .  A
C2037      C2038   1.399       .  A
C2037      H2042   1.082       .  S
C2038      C2039   1.405       .  A
C2038      H2043   1.083       .  S
C2039      C2040   1.406       .  A
C2040      H2044   1.083       .  S
C2045      C2046   1.407       .  A
C2045      C2050   1.403       .  A
C2045      H2051   1.083       .  S
C2046      C2047   1.402       .  A
C2047      C2048   1.399       .  A
C2047      H2052   1.083       .  S
C2048      C2049   1.406       .  A
C2048      H2053   1.083       .  S
C2049      C2050   1.404       .  A
C2050      H2054   1.083       .  S
C2055      C2056   1.408       .  A
C2055      C2060   1.406       .  A
C2055      H2061   1.082       .  S
C2056      C2057   1.409       .  A
C2057      C2058   1.399       .  A
C2057      H2062   1.082       .  S
C2058      C2059   1.401       .  A
C2058      H2063   1.083       .  S
C2059      C2060   1.405       .  A
C2060      H2064   1.083       .  S
C2065      C2066   1.405       .  A
C2065      C2070   1.399       .  A
C2065      H2071   1.083       .  S
C2066      C2067   1.406       .  A
C2067      C2068   1.399       .  A
C2067      H2072   1.083       .  S
C2068      C2069   1.404       .  A
C2068      H2073   1.083       .  S
C2069      C2070   1.404       .  A
C2070      H2074   1.083       .  S
C2075      C2076   1.405       .  A
C2075      C2080   1.401       .  A
C2075      H2081   1.083       .  S
C2076      C2077   1.404       .  A
C2077      C2078   1.402       .  A
C2077      H2082   1.083       .  S
C2078      C2079   1.407       .  A
C2078      H2083   1.083       .  S
C2079      C2080   1.403       .  A
C2080      H2084   1.083       .  S
C2085      C2086   1.406       .  A
C2085      C2090   1.399       .  A
C2085      H2091   1.082       .  S
C2086      C2087   1.405       .  A
C2087      C2088   1.397       .  A
C2087      H2092   1.082       .  S
C2088      C2089   1.405       .  A
C2088      H2093   1.083       .  S
C2089      C2090   1.405       .  A
C2090      H2094   1.083       .  S
C2095      C2096   1.404       .  A
C2095      C2100   1.405       .  A
C2095      H2101   1.083       .  S
C2096      C2097   1.407       .  A
C2097      C2098   1.403       .  A
C2097      H2102   1.083       .  S
C2098      C2099   1.404       .  A
C2098      H2103   1.083       .  S
C2099      C2100   1.408       .  A
C2100      H2104   1.083       .  S
C2105      C2106   1.407       .  A
C2105      C2110   1.406       .  A
C2105      H2111   1.083       .  S
C2106      C2107   1.403       .  A
C2107      C2108   1.403       .  A
C2107      H2112   1.083       .  S
C2108      C2109   1.408       .  A
C2108      H2113   1.083       .  S
C2109      C2110   1.405       .  A
C2110      H2114   1.083       .  S
C2115      C2116   1.406       .  A
C2115      C2120   1.409       .  A
C2115      H2121   1.083       .  S
C2116      C2117   1.402       .  A
C2117      C2118   1.396       .  A
C2117      H2122   1.084       .  S
C2118      C2119   1.408       .  A
C2118      H2123   1.081       .  S
C2119      C2120   1.409       .  A
C2120      H2124   1.082       .  S
C2125      C2126   1.406       .  A
C2125      C2130   1.400       .  A
C2125      H2131   1.082       .  S
C2126      C2127   1.406       .  A
C2127      C2128   1.398       .  A
C2127      H2132   1.082       .  S
C2128      C2129   1.405       .  A
C2128      H2133   1.083       .  S
C2129      C2130   1.406       .  A
C2130      H2134   1.083       .  S
C2135      C2136   1.410       .  A
C2135      C2140   1.406       .  A
C2135      H2141   1.081       .  S
C2136      C2137   1.409       .  A
C2137      C2138   1.397       .  A
C2137      H2142   1.081       .  S
C2138      C2139   1.402       .  A
C2138      H2143   1.084       .  S
C2139      C2140   1.404       .  A
C2140      H2144   1.083       .  S
C2145      C2146   1.407       .  A
C2145      C2150   1.400       .  A
C2145      H2151   1.082       .  S
C2146      C2147   1.408       .  A
C2147      C2148   1.399       .  A
C2147      H2152   1.082       .  S
C2148      C2149   1.402       .  A
C2148      H2153   1.083       .  S
C2149      C2150   1.403       .  A
C2150      H2154   1.083       .  S
C2155      C2156   1.406       .  A
C2155      C2160   1.404       .  A
C2155      H2161   1.083       .  S
C2156      C2157   1.403       .  A
C2157      C2158   1.401       .  A
C2157      H2162   1.083       .  S
C2158      C2159   1.407       .  A
C2158      H2163   1.083       .  S
C2159      C2160   1.405       .  A
C2160      H2164   1.083       .  S
C2165      C2166   1.405       .  A
C2165      C2170   1.403       .  A
C2165      H2171   1.083       .  S
C2166      C2167   1.407       .  A
C2167      C2168   1.401       .  A
C2167      H2172   1.083       .  S
C2168      C2169   1.402       .  A
C2168      H2173   1.083       .  S
C2169      C2170   1.406       .  A
C2170      H2174   1.083       .  S
C2175      C2176   1.405       .  A
C2175      C2180   1.399       .  A
C2175      H2181   1.083       .  S
C2176      C2177   1.406       .  A
C2177      C2178   1.399       .  A
C2177      H2182   1.083       .  S
C2178      C2179   1.404       .  A
C2178      H2183   1.083       .  S
C2179      C2180   1.405       .  A
C2180      H2184   1.083       .  S
C2185      C2186   1.409       .  A
C2185      C2190   1.407       .  A
C2185      H2191   1.082       .  S
C2186      C2187   1.409       .  A
C2187      C2188   1.398       .  A
C2187      H2192   1.081       .  S
C2188      C2189   1.401       .  A
C2188      H2193   1.083       .  S
C2189      C2190   1.405       .  A
C2190      H2194   1.083       .  S
C2195      C2196   1.407       .  A
C2195      C2200   1.401       .  A
C2195      H2201   1.083       .  S
C2196      C2197   1.404       .  A
C2197      C2198   1.403       .  A
C2197      H2202   1.083       .  S
C2198      C2199   1.407       .  A
C2198      H2203   1.083       .  S
C2199      C2200   1.403       .  A
C2200      H2204   1.083       .  S
C2205      C2206   1.407       .  A
C2205      C2210   1.400       .  A
C2205      H2211   1.082       .  S
C2206      C2207   1.407       .  A
C2207      C2208   1.400       .  A
C2207      H2212   1.082       .  S
C2208      C2209   1.405       .  A
C2208      H2213   1.083       .  S
C2209      C2210   1.405       .  A
C2210      H2214   1.083       .  S
C2215      C2216   1.405       .  A
C2215      C2220   1.405       .  A
C2215      H2221   1.083       .  S
C2216      C2217   1.402       .  A
C2217      C2218   1.400       .  A
C2217      H2222   1.083       .  S
C2218      C2219   1.407       .  A
C2218      H2223   1.083       .  S
C2219      C2220   1.407       .  A
C2220      H2224   1.083       .  S
C2225      C2226   1.405       .  A
C2225      C2230   1.403       .  A
C2225      H2231   1.083       .  S
C2226      C2227   1.402       .  A
C2227      C2228   1.402       .  A
C2227      H2232   1.083       .  S
C2228      C2229   1.408       .  A
C2228      H2233   1.083       .  S
C2229      C2230   1.406       .  A
C2230      H2234   1.083       .  S
C2235      C2236   1.405       .  A
C2235      C2240   1.407       .  A
C2235      H2241   1.083       .  S
C2236      C2237   1.401       .  A
C2237      C2238   1.398       .  A
C2237      H2242   1.083       .  S
C2238      C2239   1.408       .  A
C2238      H2243   1.082       .  S
C2239      C2240   1.408       .  A
C2240      H2244   1.082       .  S
C2245      C2246   1.407       .  A
C2245      C2250   1.405       .  A
C2245      H2251   1.082       .  S
C2246      C2247   1.409       .  A
C2247      C2248   1.399       .  A
C2247      H2252   1.082       .  S
C2248      C2249   1.400       .  A
C2248      H2253   1.083       .  S
C2249      C2250   1.405       .  A
C2250      H2254   1.083       .  S
C2255      C2256   1.406       .  A
C2255      C2260   1.401       .  A
C2255      H2261   1.082       .  S
C2256      C2257   1.406       .  A
C2257      C2258   1.398       .  A
C2257      H2262   1.082       .  S
C2258      C2259   1.404       .  A
C2258      H2263   1.083       .  S
C2259      C2260   1.404       .  A
C2260      H2264   1.083       .  S
C2265      C2266   1.405       .  A
C2265      C2270   1.406       .  A
C2265      H2271   1.083       .  S
C2266      C2267   1.400       .  A
C2267      C2268   1.398       .  A
C2267      H2272   1.083       .  S
C2268      C2269   1.409       .  A
C2268      H2273   1.082       .  S
C2269      C2270   1.408       .  A
C2270      H2274   1.082       .  S
C2275      C2276   1.405       .  A
C2275      C2280   1.404       .  A
C2275      H2281   1.083       .  S
C2276      C2277   1.407       .  A
C2277      C2278   1.401       .  A
C2277      H2282   1.083       .  S
C2278      C2279   1.402       .  A
C2278      H2283   1.083       .  S
C2279      C2280   1.407       .  A
C2280      H2284   1.083       .  S
C2285      C2286   1.406       .  A
C2285      C2290   1.397       .  A
C2285      H2291   1.082       .  S
C2286      C2287   1.407       .  A
C2287      C2288   1.400       .  A
C2287      H2292   1.082       .  S
C2288      C2289   1.404       .  A
C2288      H2293   1.083       .  S
C2289      C2290   1.403       .  A
C2290      H2294   1.083       .  S
C2295      C2296   1.406       .  A
C2295      C2300   1.400       .  A
C2295      H2301   1.083       .  S
C2296      C2297   1.405       .  A
C2297      C2298   1.401       .  A
C2297      H2302   1.083       .  S
C2298      C2299   1.406       .  A
C2298      H2303   1.083       .  S
C2299      C2300   1.404       .  A
C2300      H2304   1.083       .  S
C2305      C2306   1.407       .  A
C2305      C2310   1.407       .  A
C2305      H2311   1.083       .  S
C2306      C2307   1.401       .  A
C2307      C2308   1.399       .  A
C2307      H2312   1.083       .  S
C2308      C2309   1.407       .  A
C2308      H2313   1.083       .  S
C2309      C2310   1.406       .  A
C2310      H2314   1.083       .  S
C2315      C2316   1.401       .  A
C2315      C2320   1.399       .  A
C2315      H2321   1.083       .  S
C2316      C2317   1.407       .  A
C2317      C2318   1.406       .  A
C2317      H2322   1.083       .  S
C2318      C2319   1.406       .  A
C2318      H2323   1.083       .  S
C2319      C2320   1.408       .  A
C2320      H2324   1.083       .  S
C2325      C2326   1.409       .  A
C2325      C2330   1.399       .  A
C2325      H2331   1.082       .  S
C2326      C2327   1.407       .  A
C2327      C2328   1.404       .  A
C2327      H2332   1.082       .  S
C2328      C2329   1.405       .  A
C2328      H2333   1.083       .  S
C2329      C2330   1.401       .  A
C2330      H2334   1.083       .  S
C2335      C2336   1.409       .  A
C2335      C2340   1.396       .  A
C2335      H2341   1.081       .  S
C2336      C2337   1.408       .  A
C2337      C2338   1.407       .  A
C2337      H2342   1.082       .  S
C2338      C2339   1.405       .  A
C2338      H2343   1.083       .  S
C2339      C2340   1.400       .  A
C2340      H2344   1.084       .  S
C2345      C2346   1.405       .  A
C2345      C2350   1.399       .  A
C2345      H2351   1.083       .  S
C2346      C2347   1.405       .  A
C2347      C2348   1.398       .  A
C2347      H2352   1.083       .  S
C2348      C2349   1.405       .  A
C2348      H2353   1.083       .  S
C2349      C2350   1.405       .  A
C2350      H2354   1.083       .  S
C2355      C2356   1.403       .  A
C2355      C2360   1.402       .  A
C2355      H2361   1.083       .  S
C2356      C2357   1.406       .  A
C2357      C2358   1.403       .  A
C2357      H2362   1.083       .  S
C2358      C2359   1.404       .  A
C2358      H2363   1.083       .  S
C2359      C2360   1.407       .  A
C2360      H2364   1.083       .  S
C2365      C2366   1.405       .  A
C2365      C2370   1.405       .  A
C2365      H2371   1.083       .  S
C2366      C2367   1.406       .  A
C2367      C2368   1.400       .  A
C2367      H2372   1.083       .  S
C2368      C2369   1.402       .  A
C2368      H2373   1.083       .  S
C2369      C2370   1.406       .  A
C2370      H2374   1.083       .  S
C2375      C2376   1.407       .  A
C2375      C2380   1.400       .  A
C2375      H2381   1.082       .  S
C2376      C2377   1.407       .  A
C2377      C2378   1.398       .  A
C2377      H2382   1.082       .  S
C2378      C2379   1.402       .  A
C2378      H2383   1.083       .  S
C2379      C2380   1.403       .  A
C2380      H2384   1.083       .  S
C2385      C2386   1.401       .  A
C2385      C2390   1.399       .  A
C2385      H2391   1.083       .  S
C2386      C2387   1.406       .  A
C2387      C2388   1.406       .  A
C2387      H2392   1.083       .  S
C2388      C2389   1.406       .  A
C2388      H2393   1.083       .  S
C2389      C2390   1.407       .  A
C2390      H2394   1.083       .  S
C2395      C2396   1.407       .  A
C2395      C2400   1.402       .  A
C2395      H2401   1.083       .  S
C2396      C2397   1.405       .  A
C2397      C2398   1.398       .  A
C2397      H2402   1.082       .  S
C2398      C2399   1.404       .  A
C2398      H2403   1.083       .  S
C2399      C2400   1.405       .  A
C2400      H2404   1.083       .  S
C2405      C2406   1.406       .  A
C2405      C2410   1.401       .  A
C2405      H2411   1.083       .  S
C2406      C2407   1.404       .  A
C2407      C2408   1.404       .  A
C2407      H2412   1.083       .  S
C2408      C2409   1.407       .  A
C2408      H2413   1.083       .  S
C2409      C2410   1.403       .  A
C2410      H2414   1.083       .  S
C2415      C2416   1.406       .  A
C2415      C2420   1.399       .  A
C2415      H2421   1.082       .  S
C2416      C2417   1.405       .  A
C2417      C2418   1.400       .  A
C2417      H2422   1.082       .  S
C2418      C2419   1.404       .  A
C2418      H2423   1.083       .  S
C2419      C2420   1.404       .  A
C2420      H2424   1.083       .  S
C2425      C2426   1.405       .  A
C2425      C2430   1.406       .  A
C2425      H2431   1.083       .  S
C2426      C2427   1.400       .  A
C2427      C2428   1.396       .  A
C2427      H2432   1.083       .  S
C2428      C2429   1.407       .  A
C2428      H2433   1.082       .  S
C2429      C2430   1.407       .  A
C2430      H2434   1.083       .  S
C2435      C2436   1.405       .  A
C2435      C2440   1.406       .  A
C2435      H2441   1.083       .  S
C2436      C2437   1.408       .  A
C2437      C2438   1.402       .  A
C2437      H2442   1.083       .  S
C2438      C2439   1.402       .  A
C2438      H2443   1.083       .  S
C2439      C2440   1.406       .  A
C2440      H2444   1.083       .  S
C2445      C2446   1.406       .  A
C2445      C2450   1.406       .  A
C2445      H2451   1.083       .  S
C2446      C2447   1.407       .  A
C2447      C2448   1.399       .  A
C2447      H2452   1.083       .  S
C2448      C2449   1.401       .  A
C2448      H2453   1.083       .  S
C2449      C2450   1.406       .  A
C2450      H2454   1.083       .  S
C2455      C2456   1.406       .  A
C2455      C2460   1.399       .  A
C2455      H2461   1.082       .  S
C2456      C2457   1.406       .  A
C2457      C2458   1.398       .  A
C2457      H2462   1.082       .  S
C2458      C2459   1.403       .  A
C2458      H2463   1.083       .  S
C2459      C2460   1.403       .  A
C2460      H2464   1.083       .  S
C2465      C2466   1.400       .  A
C2465      C2470   1.396       .  A
C2465      H2471   1.084       .  S
C2466      C2467   1.406       .  A
C2467      C2468   1.408       .  A
C2467      H2472   1.083       .  S
C2468      C2469   1.408       .  A
C2468      H2473   1.082       .  S
C2469      C2470   1.409       .  A
C2470      H2474   1.082       .  S
C2475      C2476   1.400       .  A
C2475      C2480   1.396       .  A
C2475      H2481   1.084       .  S
C2476      C2477   1.404       .  A
C2477      C2478   1.405       .  A
C2477      H2482   1.083       .  S
C2478      C2479   1.410       .  A
C2478      H2483   1.081       .  S
C2479      C2480   1.409       .  A
C2480      H2484   1.080       .  S
C2485      C2486   1.410       .  A
C2485      C2490   1.396       .  A
C2485      H2491   1.080       .  S
C2486      C2487   1.410       .  A
C2487      C2488   1.408       .  A
C2487      H2492   1.082       .  S
C2488      C2489   1.406       .  A
C2488      H2493   1.083       .  S
C2489      C2490   1.401       .  A
C2490      H2494   1.084       .  S
C2495      C2496   1.401       .  A
C2495      C2500   1.400       .  A
C2495      H2501   1.083       .  S
C2496      C2497   1.406       .  A
C2497      C2498   1.405       .  A
C2497      H2502   1.083       .  S
C2498      C2499   1.406       .  A
C2498      H2503   1.083       .  S
C2499      C2500   1.408       .  A
C2500      H2504   1.083       .  S
C2505      C2506   1.407       .  A
C2505      C2510   1.398       .  A
C2505      H2511   1.082       .  S
C2506      C2507   1.404       .  A
C2507      C2508   1.400       .  A
C2507      H2512   1.083       .  S
C2508      C2509   1.405       .  A
C2508      H2513   1.083       .  S
C2509      C2510   1.404       .  A
C2510      H2514   1.083       .  S
C2515      C2516   1.405       .  A
C2515      C2520   1.406       .  A
C2515      H2521   1.083       .  S
C2516      C2517   1.400       .  A
C2517      C2518   1.398       .  A
C2517      H2522   1.083       .  S
C2518      C2519   1.408       .  A
C2518      H2523   1.082       .  S
C2519      C2520   1.407       .  A
C2520      H2524   1.082       .  S
C2525      C2526   1.406       .  A
C2525      C2530   1.398       .  A
C2525      H2531   1.083       .  S
C2526      C2527   1.406       .  A
C2527      C2528   1.405       .  A
C2527      H2532   1.083       .  S
C2528      C2529   1.406       .  A
C2528      H2533   1.083       .  S
C2529      C2530   1.401       .  A
C2530      H2534   1.083       .  S
C2535      C2536   1.406       .  A
C2535      C2540   1.397       .  A
C2535      H2541   1.082       .  S
C2536      C2537   1.406       .  A
C2537      C2538   1.401       .  A
C2537      H2542   1.083       .  S
C2538      C2539   1.405       .  A
C2538      H2543   1.083       .  S
C2539      C2540   1.403       .  A
C2540      H2544   1.083       .  S
C2545      C2546   1.402       .  A
C2545      C2550   1.399       .  A
C2545      H2551   1.083       .  S
C2546      C2547   1.408       .  A
C2547      C2548   1.405       .  A
C2547      H2552   1.083       .  S
C2548      C2549   1.405       .  A
C2548      H2553   1.083       .  S
C2549      C2550   1.406       .  A
C2550      H2554   1.083       .  S
C2555      C2556   1.407       .  A
C2555      C2560   1.401       .  A
C2555      H2561   1.083       .  S
C2556      C2557   1.404       .  A
C2557      C2558   1.403       .  A
C2557      H2562   1.083       .  S
C2558      C2559   1.406       .  A
C2558      H2563   1.083       .  S
C2559      C2560   1.402       .  A
C2560      H2564   1.083       .  S
C2565      C2566   1.406       .  A
C2565      C2570   1.399       .  A
C2565      H2571   1.083       .  S
C2566      C2567   1.405       .  A
C2567      C2568   1.398       .  A
C2567      H2572   1.082       .  S
C2568      C2569   1.404       .  A
C2568      H2573   1.083       .  S
C2569      C2570   1.405       .  A
C2570      H2574   1.083       .  S
C2575      C2576   1.406       .  A
C2575      C2580   1.404       .  A
C2575      H2581   1.083       .  S
C2576      C2577   1.402       .  A
C2577      C2578   1.400       .  A
C2577      H2582   1.083       .  S
C2578      C2579   1.408       .  A
C2578      H2583   1.083       .  S
C2579      C2580   1.405       .  A
C2580      H2584   1.083       .  S
C2585      C2586   1.406       .  A
C2585      C2590   1.404       .  A
C2585      H2591   1.083       .  S
C2586      C2587   1.402       .  A
C2587      C2588   1.401       .  A
C2587      H2592   1.083       .  S
C2588      C2589   1.407       .  A
C2588      H2593   1.083       .  S
C2589      C2590   1.405       .  A
C2590      H2594   1.083       .  S
C2595      C2596   1.409       .  A
C2595      C2600   1.408       .  A
C2595      H2601   1.082       .  S
C2596      C2597   1.409       .  A
C2597      C2598   1.397       .  A
C2597      H2602   1.081       .  S
C2598      C2599   1.401       .  A
C2598      H2603   1.084       .  S
C2599      C2600   1.406       .  A
C2600      H2604   1.083       .  S
C2605      C2606   1.406       .  A
C2605      C2610   1.399       .  A
C2605      H2611   1.083       .  S
C2606      C2607   1.405       .  A
C2607      C2608   1.401       .  A
C2607      H2612   1.083       .  S
C2608      C2609   1.406       .  A
C2608      H2613   1.083       .  S
C2609      C2610   1.404       .  A
C2610      H2614   1.083       .  S
C2615      C2616   1.405       .  A
C2615      C2620   1.402       .  A
C2615      H2621   1.083       .  S
C2616      C2617   1.409       .  A
C2617      C2618   1.403       .  A
C2617      H2622   1.083       .  S
C2618      C2619   1.403       .  A
C2618      H2623   1.083       .  S
C2619      C2620   1.405       .  A
C2620      H2624   1.083       .  S
C2625      C2626   1.404       .  A
C2625      C2630   1.402       .  A
C2625      H2631   1.083       .  S
C2626      C2627   1.406       .  A
C2627      C2628   1.402       .  A
C2627      H2632   1.083       .  S
C2628      C2629   1.404       .  A
C2628      H2633   1.083       .  S
C2629      C2630   1.407       .  A
C2630      H2634   1.083       .  S
C2635      C2636   1.407       .  A
C2635      C2640   1.401       .  A
C2635      H2641   1.083       .  S
C2636      C2637   1.407       .  A
C2637      C2638   1.400       .  A
C2637      H2642   1.082       .  S
C2638      C2639   1.403       .  A
C2638      H2643   1.083       .  S
C2639      C2640   1.403       .  A
C2640      H2644   1.083       .  S
C2645      C2646   1.401       .  A
C2645      C2650   1.400       .  A
C2645      H2651   1.083       .  S
C2646      C2647   1.405       .  A
C2647      C2648   1.403       .  A
C2647      H2652   1.083       .  S
C2648      C2649   1.406       .  A
C2648      H2653   1.083       .  S
C2649      C2650   1.408       .  A
C2650      H2654   1.083       .  S
C2655      C2656   1.399       .  A
C2655      C2660   1.394       .  A
C2655      H2661   1.084       .  S
C2656      C2657   1.406       .  A
C2657      C2658   1.409       .  A
C2657      H2662   1.083       .  S
C2658      C2659   1.410       .  A
C2658      H2663   1.082       .  S
C2659      C2660   1.410       .  A
C2660      H2664   1.080       .  S
C2665      C2666   1.406       .  A
C2665      C2670   1.404       .  A
C2665      H2671   1.083       .  S
C2666      C2667   1.408       .  A
C2667      C2668   1.401       .  A
C2667      H2672   1.083       .  S
C2668      C2669   1.402       .  A
C2668      H2673   1.083       .  S
C2669      C2670   1.405       .  A
C2670      H2674   1.083       .  S
C2675      C2676   1.405       .  A
C2675      C2680   1.403       .  A
C2675      H2681   1.083       .  S
C2676      C2677   1.408       .  A
C2677      C2678   1.401       .  A
C2677      H2682   1.083       .  S
C2678      C2679   1.402       .  A
C2678      H2683   1.083       .  S
C2679      C2680   1.406       .  A
C2680      H2684   1.083       .  S
C2685      C2686   1.406       .  A
C2685      C2690   1.399       .  A
C2685      H2691   1.082       .  S
C2686      C2687   1.406       .  A
C2687      C2688   1.399       .  A
C2687      H2692   1.082       .  S
C2688      C2689   1.405       .  A
C2688      H2693   1.083       .  S
C2689      C2690   1.405       .  A
C2690      H2694   1.083       .  S
C2695      C2696   1.407       .  A
C2695      C2700   1.407       .  A
C2695      H2701   1.083       .  S
C2696      C2697   1.402       .  A
C2697      C2698   1.401       .  A
C2697      H2702   1.083       .  S
C2698      C2699   1.408       .  A
C2698      H2703   1.083       .  S
C2699      C2700   1.406       .  A
C2700      H2704   1.083       .  S
C2705      C2706   1.405       .  A
C2705      C2710   1.405       .  A
C2705      H2711   1.083       .  S
C2706      C2707   1.407       .  A
C2707      C2708   1.402       .  A
C2707      H2712   1.083       .  S
C2708      C2709   1.403       .  A
C2708      H2713   1.083       .  S
C2709      C2710   1.407       .  A
C2710      H2714   1.083       .  S
C2715      C2716   1.407       .  A
C2715      C2720   1.406       .  A
C2715      H2721   1.083       .  S
C2716      C2717   1.407       .  A
C2717      C2718   1.398       .  A
C2717      H2722   1.083       .  S
C2718      C2719   1.400       .  A
C2718      H2723   1.083       .  S
C2719      C2720   1.406       .  A
C2720      H2724   1.083       .  S
C2725      C2726   1.407       .  A
C2725      C2730   1.399       .  A
C2725      H2731   1.082       .  S
C2726      C2727   1.408       .  A
C2727      C2728   1.402       .  A
C2727      H2732   1.082       .  S
C2728      C2729   1.404       .  A
C2728      H2733   1.083       .  S
C2729      C2730   1.403       .  A
C2730      H2734   1.083       .  S
C2735      C2736   1.406       .  A
C2735      C2740   1.401       .  A
C2735      H2741   1.083       .  S
C2736      C2737   1.402       .  A
C2737      C2738   1.399       .  A
C2737      H2742   1.083       .  S
C2738      C2739   1.406       .  A
C2738      H2743   1.083       .  S
C2739      C2740   1.403       .  A
C2740      H2744   1.083       .  S
C2745      C2746   1.404       .  A
C2745      C2750   1.396       .  A
C2745      H2751   1.083       .  S
C2746      C2747   1.406       .  A
C2747      C2748   1.401       .  A
C2747      H2752   1.083       .  S
C2748      C2749   1.405       .  A
C2748      H2753   1.083       .  S
C2749      C2750   1.404       .  A
C2750      H2754   1.083       .  S
C2755      C2756   1.402       .  A
C2755      C2760   1.397       .  A
C2755      H2761   1.083       .  S
C2756      C2757   1.406       .  A
C2757      C2758   1.409       .  A
C2757      H2762   1.083       .  S
C2758      C2759   1.410       .  A
C2758      H2763   1.082       .  S
C2759      C2760   1.408       .  A
C2760      H2764   1.081       .  S
C2765      C2766   1.402       .  A
C2765      C2770   1.397       .  A
C2765      H2771   1.084       .  S
C2766      C2767   1.406       .  A
C2767      C2768   1.409       .  A
C2767      H2772   1.083       .  S
C2768      C2769   1.410       .  A
C2768      H2773   1.082       .  S
C2769      C2770   1.409       .  A
C2770      H2774   1.081       .  S
C2775      C2776   1.407       .  A
C2775      C2780   1.404       .  A
C2775      H2781   1.082       .  S
C2776      C2777   1.409       .  A
C2777      C2778   1.400       .  A
C2777      H2782   1.082       .  S
C2778      C2779   1.401       .  A
C2778      H2783   1.083       .  S
C2779      C2780   1.404       .  A
C2780      H2784   1.083       .  S
C2785      C2786   1.406       .  A
C2785      C2790   1.400       .  A
C2785      H2791   1.083       .  S
C2786      C2787   1.405       .  A
C2787      C2788   1.404       .  A
C2787      H2792   1.083       .  S
C2788      C2789   1.408       .  A
C2788      H2793   1.083       .  S
C2789      C2790   1.403       .  A
C2790      H2794   1.083       .  S
C2795      C2796   1.407       .  A
C2795      C2800   1.400       .  A
C2795      H2801   1.082       .  S
C2796      C2797   1.406       .  A
C2797      C2798   1.398       .  A
C2797      H2802   1.082       .  S
C2798      C2799   1.404       .  A
C2798      H2803   1.083       .  S
C2799      C2800   1.405       .  A
C2800      H2804   1.083       .  S
C2805      C2806   1.405       .  A
C2805      C2810   1.407       .  A
C2805      H2811   1.083       .  S
C2806      C2807   1.401       .  A
C2807      C2808   1.399       .  A
C2807      H2812   1.083       .  S
C2808      C2809   1.408       .  A
C2808      H2813   1.082       .  S
C2809      C2810   1.407       .  A
C2810      H2814   1.083       .  S
C2815      C2816   1.406       .  A
C2815      C2820   1.405       .  A
C2815      H2821   1.083       .  S
C2816      C2817   1.400       .  A
C2817      C2818   1.397       .  A
C2817      H2822   1.083       .  S
C2818      C2819   1.406       .  A
C2818      H2823   1.083       .  S
C2819      C2820   1.406       .  A
C2820      H2824   1.083       .  S
C2825      C2826   1.406       .  A
C2825      C2830   1.400       .  A
C2825      H2831   1.083       .  S
C2826      C2827   1.405       .  A
C2827      C2828   1.399       .  A
C2827      H2832   1.083       .  S
C2828      C2829   1.405       .  A
C2828      H2833   1.083       .  S
C2829      C2830   1.405       .  A
C2830      H2834   1.083       .  S
C2835      C2836   1.402       .  A
C2835      C2840   1.402       .  A
C2835      H2841   1.083       .  S
C2836      C2837   1.406       .  A
C2837      C2838   1.406       .  A
C2837      H2842   1.083       .  S
C2838      C2839   1.407       .  A
C2838      H2843   1.082       .  S
C2839      C2840   1.409       .  A
C2840      H2844   1.083       .  S
C2845      C2846   1.403       .  A
C2845      C2850   1.403       .  A
C2845      H2851   1.083       .  S
C2846      C2847   1.408       .  A
C2847      C2848   1.406       .  A
C2847      H2852   1.083       .  S
C2848      C2849   1.405       .  A
C2848      H2853   1.083       .  S
C2849      C2850   1.408       .  A
C2850      H2854   1.083       .  S
C2855      C2856   1.408       .  A
C2855      C2860   1.404       .  A
C2855      H2861   1.082       .  S
C2856      C2857   1.408       .  A
C2857      C2858   1.398       .  A
C2857      H2862   1.082       .  S
C2858      C2859   1.400       .  A
C2858      H2863   1.083       .  S
C2859      C2860   1.404       .  A
C2860      H2864   1.083       .  S
C2865      C2866   1.404       .  A
C2865      C2870   1.403       .  A
C2865      H2871   1.083       .  S
C2866      C2867   1.406       .  A
C2867      C2868   1.402       .  A
C2867      H2872   1.083       .  S
C2868      C2869   1.403       .  A
C2868      H2873   1.083       .  S
C2869      C2870   1.407       .  A
C2870      H2874   1.083       .  S
C2875      C2876   1.406       .  A
C2875      C2880   1.402       .  A
C2875      H2881   1.083       .  S
C2876      C2877   1.405       .  A
C2877      C2878   1.400       .  A
C2877      H2882   1.083       .  S
C2878      C2879   1.405       .  A
C2878      H2883   1.083       .  S
C2879      C2880   1.406       .  A
C2880      H2884   1.083       .  S
C2885      C2886   1.400       .  A
C2885      C2890   1.394       .  A
C2885      H2891   1.084       .  S
C2886      C2887   1.405       .  A
C2887      C2888   1.407       .  A
C2887      H2892   1.083       .  S
C2888      C2889   1.409       .  A
C2888      H2893   1.082       .  S
C2889      C2890   1.408       .  A
C2890      H2894   1.081       .  S
C2895      C2896   1.400       .  A
C2895      C2900   1.396       .  A
C2895      H2901   1.084       .  S
C2896      C2897   1.404       .  A
C2897      C2898   1.405       .  A
C2897      H2902   1.083       .  S
C2898      C2899   1.408       .  A
C2898      H2903   1.082       .  S
C2899      C2900   1.408       .  A
C2900      H2904   1.082       .  S
C2905      C2906   1.405       .  A
C2905      C2910   1.406       .  A
C2905      H2911   1.083       .  S
C2906      C2907   1.408       .  A
C2907      C2908   1.403       .  A
C2907      H2912   1.083       .  S
C2908      C2909   1.403       .  A
C2908      H2913   1.083       .  S
C2909      C2910   1.407       .  A
C2910      H2914   1.083       .  S
C2915      C2916   1.406       .  A
C2915      C2920   1.396       .  A
C2915      H2921   1.082       .  S
C2916      C2917   1.405       .  A
C2917      C2918   1.400       .  A
C2917      H2922   1.083       .  S
C2918      C2919   1.403       .  A
C2918      H2923   1.083       .  S
C2919      C2920   1.401       .  A
C2920      H2924   1.083       .  S
C2925      C2926   1.407       .  A
C2925      C2930   1.402       .  A
C2925      H2931   1.083       .  S
C2926      C2927   1.403       .  A
C2927      C2928   1.400       .  A
C2927      H2932   1.083       .  S
C2928      C2929   1.406       .  A
C2928      H2933   1.083       .  S
C2929      C2930   1.405       .  A
C2930      H2934   1.083       .  S
C2935      C2936   1.406       .  A
C2935      C2940   1.406       .  A
C2935      H2941   1.083       .  S
C2936      C2937   1.400       .  A
C2937      C2938   1.399       .  A
C2937      H2942   1.083       .  S
C2938      C2939   1.408       .  A
C2938      H2943   1.083       .  S
C2939      C2940   1.406       .  A
C2940      H2944   1.083       .  S
C2945      C2946   1.406       .  A
C2945      C2950   1.399       .  A
C2945      H2951   1.083       .  S
C2946      C2947   1.406       .  A
C2947      C2948   1.404       .  A
C2947      H2952   1.083       .  S
C2948      C2949   1.405       .  A
C2948      H2953   1.083       .  S
C2949      C2950   1.401       .  A
C2950      H2954   1.083       .  S
C2955      C2956   1.405       .  A
C2955      C2960   1.398       .  A
C2955      H2961   1.083       .  S
C2956      C2957   1.404       .  A
C2957      C2958   1.402       .  A
C2957      H2962   1.083       .  S
C2958      C2959   1.406       .  A
C2958      H2963   1.083       .  S
C2959      C2960   1.402       .  A
C2960      H2964   1.083       .  S
C2965      C2966   1.405       .  A
C2965      C2970   1.399       .  A
C2965      H2971   1.083       .  S
C2966      C2967   1.405       .  A
C2967      C2968   1.398       .  A
C2967      H2972   1.083       .  S
C2968      C2969   1.404       .  A
C2968      H2973   1.083       .  S
C2969      C2970   1.405       .  A
C2970      H2974   1.083       .  S
C2975      C2976   1.408       .  A
C2975      C2980   1.403       .  A
C2975      H2981   1.083       .  S
C2976      C2977   1.403       .  A
C2977      C2978   1.401       .  A
C2977      H2982   1.083       .  S
C2978      C2979   1.407       .  A
C2978      H2983   1.083       .  S
C2979      C2980   1.404       .  A
C2980      H2984   1.083       .  S
C2985      C2986   1.406       .  A
C2985      C2990   1.399       .  A
C2985      H2991   1.083       .  S
C2986      C2987   1.406       .  A
C2987      C2988   1.407       .  A
C2987      H2992   1.083       .  S
C2988      C2989   1.407       .  A
C2988      H2993   1.083       .  S
C2989      C2990   1.401       .  A
C2990      H2994   1.083       .  S
C2995      C2996   1.411       .  A
C2995      C3000   1.410       .  A
C2995      H3001   1.082       .  S
C2996      C2997   1.408       .  A
C2997      C2998   1.394       .  A
C2997      H3002   1.080       .  S
C2998      C2999   1.402       .  A
C2998      H3003   1.084       .  S
C2999      C3000   1.406       .  A
C3000      H3004   1.083       .  S
C3005      C3006   1.407       .  A
C3005      C3010   1.399       .  A
C3005      H3011   1.083       .  S
C3006      C3007   1.406       .  A
C3007      C3008   1.404       .  A
C3007      H3012   1.083       .  S
C3008      C3009   1.405       .  A
C3008      H3013   1.083       .  S
C3009      C3010   1.401       .  A
C3010      H3014   1.083       .  S
C3015      C3016   1.406       .  A
C3015      C3020   1.400       .  A
C3015      H3021   1.082       .  S
C3016      C3017   1.406       .  A
C3017      C3018   1.398       .  A
C3017      H3022   1.082       .  S
C3018      C3019   1.404       .  A
C3018      H3023   1.083       .  S
C3019      C3020   1.405       .  A
C3020      H3024   1.083       .  S
