geometry optimzed in LAMMPS
_audit_creation_date              2020-11-30 
_audit_creation_method            'lammps2cif' 
_symmetry_space_group_name_H-M    'P1' 
_symmetry_Int_Tables_number       1 
_symmetry_cell_setting            triclinic 
loop_ 
_symmetry_equiv_pos_as_xyz 
  x,y,z 
_cell_length_a                    37.1422319 
_cell_length_b                    37.642325070823325 
_cell_length_c                    38.25104487987445 
_cell_angle_alpha                 91.32466881986296 
_cell_angle_beta                  89.38624559752276 
_cell_angle_gamma                 120.351435037756 
loop_ 
_atom_site_label 
_atom_site_type_symbol 
_atom_site_fract_x 
_atom_site_fract_y 
_atom_site_fract_z 
_atom_site_charge 
O1          O  0.47321639  0.44281921  0.03575329    -0.71600
O2          O  0.54457422  0.51158302  0.46414528    -0.71800
O3          O  0.54443941  0.51645161  0.03443876    -0.71600
O4          O  0.47307294  0.43797825  0.46582885    -0.71700
O5          O  0.43913885  0.47065925  0.46226612    -0.71600
O6          O  0.50649289  0.54526545  0.03406557    -0.71600
O7          O  0.51046683  0.54435009  0.46391867    -0.71600
O8          O  0.43571823  0.47182535  0.03201548    -0.71800
V9          V  0.50822249  0.47784420  0.99999421     1.35200
V10         V  0.47373504  0.50747216  0.49804983     1.35200
C11         C  0.44168719  0.44488805  0.04558718     0.77700
C12         C  0.54020701  0.54026436  0.45220989     0.77700
C13         C  0.53708150  0.54378083  0.04648447     0.77600
C14         C  0.44347382  0.44069226  0.45259802     0.77600
O15         O  0.03207511  0.55924564  0.45835260    -0.71600
O16         O  0.03064846  0.48899311  0.02863708    -0.71800
O17         O  0.03170370  0.48755208  0.45811638    -0.71600
O18         O  0.03083737  0.56048051  0.02824806    -0.71700
O19         O  0.96319401  0.52642398  0.02780319    -0.71600
O20         O  0.96400733  0.45473066  0.45673296    -0.71600
O21         O  0.96299685  0.45463397  0.02736983    -0.71600
O22         O  0.96437892  0.52609588  0.45761853    -0.71800
V23         V  0.02999689  0.52331450  0.49334688     1.35200
V24         V  0.96494989  0.49104142  0.99241228     1.35200
C25         C  0.99858828  0.55508018  0.44624093     0.77700
C26         C  0.99670642  0.45991965  0.04023559     0.77700
C27         C  0.99795160  0.45935325  0.44477490     0.77600
C28         C  0.99684258  0.55611038  0.03989018     0.77600
O29         O  0.45834845  0.97042621  0.04158998    -0.71600
O30         O  0.52972808  0.96820642  0.47057056    -0.71800
O31         O  0.52932463  0.96830262  0.04070605    -0.71600
O32         O  0.45796960  0.97000460  0.47127012    -0.71700
O33         O  0.49278863  0.03676576  0.47232143    -0.71600
O34         O  0.56564777  0.03501804  0.04063779    -0.71600
O35         O  0.56441966  0.03500698  0.47044559    -0.71600
O36         O  0.49442567  0.03719482  0.04244896    -0.71800
V37         V  0.49435879  0.97020432  0.00600279     1.35200
V38         V  0.52882555  0.03495222  0.50641878     1.35200
C39         C  0.46457923  0.00435822  0.05443634     0.77700
C40         C  0.55959288  0.00120782  0.45871121     0.77700
C41         C  0.55966479  0.00136886  0.05264752     0.77600
C42         C  0.46260718  0.00348879  0.46026535     0.77600
C43         C  0.00273427  0.73255693  0.24773719    -0.02300
C44         C  0.00243392  0.28355881  0.23845183    -0.02300
C45         C  0.27035227  0.26864740  0.24740767    -0.02300
C46         C  0.28714498  0.00406708  0.25866931    -0.02300
C47         C  0.73572465  0.00038554  0.25457454    -0.02300
C48         C  0.71953612  0.71928146  0.25092207    -0.02300
C49         C  0.76053529  0.91528563  0.27938683    -0.27400
C50         C  0.73990725  0.88514581  0.25318826     0.02200
C51         C  0.71759643  0.89200634  0.22745617     0.30300
C52         C  0.71645380  0.92857238  0.22786091    -0.19200
C53         C  0.73846047  0.96028601  0.25319019    -0.28600
C54         C  0.75952876  0.95209667  0.27988579     0.44300
C55         C  0.73888421  0.84520019  0.25423874     0.05500
O56         O  0.69419003  0.86173650  0.20316584    -0.57100
H57         H  0.69636925  0.93047311  0.20878769     0.18400
O58         O  0.78034588  0.98056760  0.30612188    -0.63800
H59         H  0.77731613  0.91014101  0.29978289     0.16900
C60         C  0.75141649  0.83026171  0.22542585     0.29100
C61         C  0.74553201  0.79050334  0.22562941    -0.24700
C62         C  0.72667458  0.76401017  0.25420812    -0.24000
C63         C  0.71884010  0.78162328  0.28476777     0.40600
C64         C  0.72388979  0.82110792  0.28403386    -0.26500
O65         O  0.76906902  0.85411840  0.19667353    -0.58400
H66         H  0.75464488  0.77965251  0.20263507     0.16200
O67         O  0.70755033  0.76183946  0.31603578    -0.59800
H68         H  0.71571882  0.83291081  0.30701401     0.14700
H69         H  0.76315949  0.96899553  0.32740110     0.46500
H70         H  0.79903283  0.87188512  0.20257592     0.41900
H71         H  0.73407089  0.77106290  0.32866197     0.45400
H72         H  0.70860213  0.87209316  0.18050773     0.36800
C73         C  0.29183064  0.10898439  0.28259760    -0.27400
C74         C  0.27109703  0.11274587  0.25387640     0.02200
C75         C  0.25637311  0.08223205  0.22747820     0.30300
C76         C  0.26143505  0.04803905  0.23047198    -0.19200
C77         C  0.28198121  0.04306933  0.25944274    -0.28600
C78         C  0.29871688  0.07568904  0.28512609     0.44300
C79         C  0.26822430  0.15040335  0.25020901     0.05500
O80         O  0.23755677  0.08587836  0.19821167    -0.57100
H81         H  0.24925422  0.02493950  0.20964382     0.18400
O82         O  0.32368504  0.07731694  0.31190969    -0.63800
H83         H  0.30470896  0.13323888  0.30247567     0.16900
C84         C  0.24355751  0.15913414  0.27272392     0.29100
C85         C  0.24335789  0.19608095  0.26973286    -0.24700
C86         C  0.26779011  0.22579309  0.24448173    -0.24000
C87         C  0.29302337  0.21637220  0.22201970     0.40600
C88         C  0.29237083  0.17894131  0.22492308    -0.26500
O89         O  0.21934688  0.13160907  0.29770826    -0.58400
H90         H  0.22463767  0.20216842  0.28810595     0.16200
O91         O  0.32200441  0.24471881  0.19981479    -0.59800
H92         H  0.31251968  0.17295614  0.20816304     0.14700
H93         H  0.35267908  0.09640406  0.30428479     0.46500
H94         H  0.23565556  0.14201116  0.31969014     0.41900
H95         H  0.31367412  0.23238483  0.17596230     0.45400
H96         H  0.20808635  0.07542685  0.20500521     0.36800
C97         C  0.08211673  0.24885922  0.21303713    -0.27400
C98         C  0.10740253  0.26038883  0.24289571     0.02200
C99         C  0.09577956  0.27485165  0.27261418     0.30300
C100        C  0.06239224  0.28191333  0.27109770    -0.19200
C101        C  0.03942484  0.27510788  0.23993982    -0.28600
C102        C  0.04774109  0.25496240  0.21169840     0.44300
C103        C  0.14774356  0.26095967  0.24255447     0.05500
O104        O  0.11731917  0.28264814  0.30342895    -0.57100
H105        H  0.05447751  0.29224543  0.29499388     0.18400
O106        O  0.02241931  0.24135878  0.18269021    -0.63800
H107        H  0.08968746  0.23624223  0.19027515     0.16900
C108        C  0.15107576  0.22630666  0.23351775     0.29100
C109        C  0.18998540  0.22850706  0.23518700    -0.24700
C110        C  0.22644977  0.26495886  0.24654267    -0.24000
C111        C  0.22257075  0.30018254  0.25357868     0.40600
C112        C  0.18388339  0.29775316  0.25166502    -0.26500
O113        O  0.11659764  0.19015348  0.22294095    -0.58400
H114        H  0.19127209  0.20157224  0.22677704     0.16200
O115        O  0.25673252  0.33766203  0.26189737    -0.59800
H116        H  0.18217054  0.32520407  0.25739438     0.14700
H117        H  0.04066827  0.25494545  0.16227125     0.46500
H118        H  0.10460765  0.17463564  0.24467912     0.41900
H119        H  0.25206215  0.34455414  0.28609281     0.45400
H120        H  0.10345817  0.25614159  0.31581633     0.36800
C121        C  0.85487281  0.08240183  0.24451125    -0.27400
C122        C  0.85372181  0.11882770  0.24819243     0.02200
C123        C  0.81536414  0.11678825  0.25324642     0.30300
C124        C  0.77871108  0.07859849  0.25469214    -0.19200
C125        C  0.77891067  0.04104950  0.25227653    -0.28600
C126        C  0.81813151  0.04380499  0.24555907     0.44300
C127        C  0.89233791  0.15905590  0.24467608     0.05500
O128        O  0.81334545  0.15210495  0.25657202    -0.57100
H129        H  0.74957075  0.07822186  0.25847027     0.18400
O130        O  0.82143019  0.00972995  0.23838929    -0.63800
H131        H  0.88439135  0.08390346  0.23955356     0.16900
C132        C  0.92140187  0.17609545  0.27192875     0.29100
C133        C  0.95647630  0.21529193  0.26859084    -0.24700
C134        C  0.96330552  0.23921844  0.23845390    -0.24000
C135        C  0.93524254  0.21981651  0.20987044     0.40600
C136        C  0.89994561  0.18056267  0.21362912    -0.26500
O137        O  0.91498851  0.15534074  0.30248525    -0.58400
H138        H  0.97792571  0.22789934  0.29044586     0.16200
O139        O  0.94339350  0.23681434  0.17733379    -0.59800
H140        H  0.87850437  0.16651420  0.19186883     0.14700
H141        H  0.82705608  0.01026649  0.21292951     0.46500
H142        H  0.92967127  0.13963172  0.29932267     0.41900
H143        H  0.91906387  0.23966453  0.17126666     0.45400
H144        H  0.81691865  0.15914940  0.28191087     0.36800
C145        C  0.20149029  0.88771007  0.25839816    -0.27400
C146        C  0.16428817  0.88868883  0.25998942     0.02200
C147        C  0.16676351  0.92708829  0.26391584     0.30300
C148        C  0.20567277  0.96353318  0.26450802    -0.19200
C149        C  0.24350441  0.96333331  0.25966361    -0.28600
C150        C  0.24049428  0.92407886  0.25820040     0.44300
C151        C  0.12332038  0.84956286  0.25659023     0.05500
O152        O  0.13123967  0.92954611  0.26679976    -0.57100
H153        H  0.20535693  0.99178257  0.26895133     0.18400
O154        O  0.27571045  0.92089643  0.25687740    -0.63800
H155        H  0.20037949  0.85839067  0.25693994     0.16900
C156        C  0.11608663  0.82140606  0.22898035     0.29100
C157        C  0.07792602  0.78450700  0.22614894    -0.24700
C158        C  0.04466676  0.77474283  0.24971369    -0.24000
C159        C  0.05289813  0.80290234  0.27816089     0.40600
C160        C  0.09140678  0.83982839  0.28104140    -0.26500
O161        O  0.14636989  0.82949583  0.20445853    -0.58400
H162        H  0.07563668  0.76323252  0.20572593     0.16200
O163        O  0.02289013  0.79505998  0.30290617    -0.59800
H164        H  0.09652207  0.86064019  0.30292834     0.14700
H165        H  0.27494354  0.90774614  0.23390603     0.46500
H166        H  0.14183034  0.84488377  0.18601475     0.41900
H167        H  0.03270241  0.78829239  0.32440236     0.45400
H168        H  0.12367431  0.93167193  0.24248015     0.36800
C169        C  0.92380780  0.77293887  0.24141099    -0.27400
C170        C  0.88577856  0.73611538  0.24464103     0.02200
C171        C  0.88585124  0.69910111  0.24734688     0.30300
C172        C  0.92356391  0.69932808  0.24758748    -0.19200
C173        C  0.96269589  0.73634248  0.24624673    -0.28600
C174        C  0.96192817  0.77339626  0.24119021     0.44300
C175        C  0.84584701  0.73604462  0.24424631     0.05500
O176        O  0.84907789  0.66238122  0.25006895    -0.57100
H177        H  0.92224158  0.67008172  0.24993039     0.18400
O178        O  0.99755582  0.81008964  0.23487897    -0.63800
H179        H  0.92391406  0.80150469  0.23810201     0.16900
C180        C  0.83418308  0.75280325  0.27221732     0.29100
C181        C  0.79439246  0.74841463  0.27281905    -0.24700
C182        C  0.76465695  0.72638165  0.24610546    -0.24000
C183        C  0.77959968  0.71521723  0.21562424     0.40600
C184        C  0.81884105  0.71838838  0.21576508    -0.26500
O185        O  0.86049970  0.77135815  0.30011164    -0.58400
H186        H  0.78571399  0.76015590  0.29548893     0.16200
O187        O  0.75767777  0.70288942  0.18486751    -0.59800
H188        H  0.82861117  0.70760195  0.19308757     0.18000
H189        H  0.99590316  0.81612677  0.21004946     0.46500
H190        H  0.87626520  0.80107458  0.29471499     0.41900
H191        H  0.76773503  0.72839647  0.17139505     0.45400
H192        H  0.84247902  0.65948372  0.27540606     0.36800
C193        C  0.60187234  0.96544459  0.12574417    -0.27400
C194        C  0.63856672  0.00199325  0.13467721     0.02200
C195        C  0.64995657  0.03787549  0.11606231     0.30300
C196        C  0.62436763  0.03713768  0.08911380    -0.19200
C197        C  0.58710941  0.00074335  0.08028001    -0.28600
C198        C  0.57620218  0.96451846  0.09875938     0.44300
C199        C  0.66359863  0.00302768  0.16478689     0.05500
O200        O  0.68582837  0.07395125  0.12435258    -0.57100
H201        H  0.63359101  0.06528086  0.07531641     0.18400
O202        O  0.54036347  0.92813555  0.09105042    -0.63800
H203        H  0.59284250  0.93767447  0.14008993     0.16900
C204        C  0.65108830  0.00570354  0.19892139     0.29100
C205        C  0.67495380  0.00683391  0.22738058    -0.24700
C206        C  0.71060366  0.00266750  0.22285867    -0.24000
C207        C  0.72449931  0.00332974  0.18789741     0.40600
C208        C  0.70071377  0.00275468  0.15944469    -0.26500
O209        O  0.61602360  0.00840449  0.20470328    -0.58400
H210        H  0.66503525  0.01140213  0.25284995     0.16200
O211        O  0.76046400  0.00263221  0.18120258    -0.59800
H212        H  0.71119635  0.00184121  0.13306794     0.14700
H213        H  0.51877596  0.92776578  0.10680688     0.46500
H214        H  0.59329092  0.97971369  0.20852524     0.41900
H215        H  0.78121621  0.03104123  0.17427782     0.45400
H216        H  0.67777101  0.08703175  0.14326880     0.36800
C217        C  0.62041604  0.96611882  0.40122392    -0.27400
C218        C  0.64304386  0.00038171  0.37999443     0.02200
C219        C  0.63884647  0.03527948  0.38529784     0.30300
C220        C  0.61176119  0.03519404  0.41112726    -0.19200
C221        C  0.58846748  0.00059619  0.43198434    -0.28600
C222        C  0.59355711  0.96610826  0.42717538     0.44300
C223        C  0.66861736  0.99825688  0.35087505     0.05500
O224        O  0.65908126  0.06854247  0.36392659    -0.57100
H225        H  0.60832191  0.06200777  0.41428892     0.18400
O226        O  0.57255076  0.93220257  0.44769212    -0.63800
H227        H  0.62352060  0.93915814  0.39755392     0.16900
C228        C  0.71107892  0.02782338  0.34746282     0.29100
C229        C  0.73312567  0.02747880  0.31769020    -0.24700
C230        C  0.71338057  0.99821308  0.29009218    -0.24000
C231        C  0.67210453  0.96543604  0.29634821     0.40600
C232        C  0.64999827  0.96633066  0.32588317    -0.26500
O233        O  0.73138821  0.05740416  0.37302941    -0.58400
H234        H  0.76587873  0.05042056  0.31677564     0.16200
O235        O  0.65178194  0.93403248  0.27223214    -0.59800
H236        H  0.61760509  0.94251809  0.32869242     0.14700
H237        H  0.59031003  0.93836575  0.46872037     0.46500
H238        H  0.73861408  0.04371376  0.39123385     0.41900
H239        H  0.65185534  0.91000392  0.28226624     0.45400
H240        H  0.68096386  0.09082866  0.37871869     0.36800
C241        C  0.41232648  0.03779171  0.39258697    -0.27400
C242        C  0.37734867  0.00014405  0.38273517     0.02200
C243        C  0.36975402  0.96395484  0.39900887     0.30300
C244        C  0.39743589  0.96561573  0.42445089    -0.19200
C245        C  0.43309454  0.00322412  0.43411057    -0.28600
C246        C  0.43996710  0.03964783  0.41819143     0.44300
C247        C  0.35283017  0.99835466  0.35194649     0.05500
O248        O  0.33669610  0.92654954  0.38878232    -0.57100
H249        H  0.39127195  0.93716322  0.43618895     0.18400
O250        O  0.47454515  0.07695690  0.42615485    -0.63800
H251        H  0.41886657  0.06572127  0.37959688     0.16900
C252        C  0.31434613  0.99664653  0.35482594     0.29100
C253        C  0.29377610  0.99762225  0.32459040    -0.24700
C254        C  0.31130791  0.00116538  0.29081996    -0.24000
C255        C  0.34779808  0.99741195  0.28858230     0.40600
C256        C  0.36847396  0.99749440  0.31893802    -0.26500
O257        O  0.29719558  0.99519099  0.38705199    -0.58400
H258        H  0.26454765  0.99725178  0.32756547     0.16200
O259        O  0.36113527  0.98878458  0.25763614    -0.59800
H260        H  0.39666597  0.99574233  0.31663517     0.14700
H261        H  0.46497270  0.09000893  0.44387245     0.46500
H262        H  0.27618400  0.96574384  0.39035112     0.41900
H263        H  0.39091785  0.01041860  0.25509519     0.45400
H264        H  0.31303163  0.92280378  0.40366183     0.36800
C265        C  0.37546264  0.04365627  0.18948336    -0.27400
C266        C  0.35943750  0.01171852  0.16431000     0.02200
C267        C  0.31748156  0.98017318  0.16697916     0.30300
C268        C  0.29353312  0.97893963  0.19591328    -0.19200
C269        C  0.31094714  0.00817814  0.22368797    -0.28600
C270        C  0.35136476  0.04285249  0.21820375     0.44300
C271        C  0.38688587  0.01050157  0.13621731     0.05500
O272        O  0.29962308  0.94980603  0.14164831    -0.57100
H273        H  0.26139539  0.95438990  0.19630924     0.18400
O274        O  0.36942860  0.07400926  0.24281497    -0.63800
H275        H  0.40752627  0.06850716  0.18792504     0.16900
C276        C  0.41242999  0.04516909  0.11589956     0.29100
C277        C  0.43752839  0.04267067  0.08945554    -0.24700
C278        C  0.43781363  0.00593702  0.08273748    -0.24000
C279        C  0.41271553  0.97146581  0.10341880     0.40600
C280        C  0.38793687  0.97408614  0.13001494    -0.26500
O281        O  0.41170231  0.08104618  0.12063427    -0.58400
H282        H  0.45643732  0.06953886  0.07384263     0.16200
O283        O  0.41315367  0.93545027  0.09871884    -0.59800
H284        H  0.36956833  0.94747702  0.14605393     0.14700
H285        H  0.36825809  0.09745184  0.23273118     0.46500
H286        H  0.43903980  0.10097385  0.13126745     0.41900
H287        H  0.38880575  0.91781254  0.08351919     0.45400
H288        H  0.29069468  0.96165703  0.12306057     0.36800
C289        C  0.03125483  0.64469487  0.10624745    -0.27400
C290        C  0.99314223  0.63486569  0.12192766     0.02200
C291        C  0.95620310  0.60054312  0.10943337     0.30300
C292        C  0.95779618  0.57590490  0.08213708    -0.19200
C293        C  0.99611892  0.58455942  0.06718969    -0.28600
C294        C  0.03301762  0.61995016  0.07908931     0.44300
C295        C  0.99277647  0.65860950  0.15316973     0.05500
O296        O  0.91839476  0.59104038  0.12369519    -0.57100
H297        H  0.92891163  0.54938628  0.07322881     0.18400
O298        O  0.07111775  0.63014897  0.06509310    -0.63800
H299        H  0.05992048  0.67102712  0.11579347     0.16900
C300        C  0.98447765  0.64087241  0.18623700     0.29100
C301        C  0.98686645  0.66414977  0.21601038    -0.24700
C302        C  0.99890207  0.70630687  0.21409014    -0.24000
C303        C  0.00276573  0.72230775  0.18003392     0.40600
C304        C  0.00139491  0.69914496  0.15022968    -0.26500
O305        O  0.97411952  0.60061564  0.18979542    -0.58400
H306        H  0.97871461  0.64834405  0.24057811     0.16200
O307        O  0.00970373  0.76131699  0.17564993    -0.59800
H308        H  0.00671336  0.71278308  0.12468321     0.14700
H309        H  0.07656960  0.65101305  0.04725961     0.46500
H310        H  0.00106981  0.60149732  0.19259279     0.41900
H311        H  0.98267341  0.75749924  0.16754744     0.45400
H312        H  0.91064326  0.56727606  0.13893054     0.36800
C313        C  0.03470226  0.64976129  0.39067155    -0.27400
C314        C  0.00102711  0.63655497  0.36763260     0.02200
C315        C  0.96633823  0.59659042  0.37064654     0.30300
C316        C  0.96569566  0.57043971  0.39649726    -0.19200
C317        C  0.99954730  0.58348696  0.41950027    -0.28600
C318        C  0.03422783  0.62363715  0.41639477     0.44300
C319        C  0.00322322  0.66396437  0.33947402     0.05500
O320        O  0.93393923  0.58215248  0.34727349    -0.57100
H321        H  0.93901291  0.53957348  0.39805842     0.18400
O322        O  0.06729576  0.63817204  0.43905992    -0.63800
H323        H  0.06151930  0.68049524  0.38865905     0.16900
C324        C  0.97466107  0.67788523  0.33775686     0.29100
C325        C  0.97534555  0.70101302  0.30934294    -0.24700
C326        C  0.00384864  0.71015705  0.28135961    -0.24000
C327        C  0.03507250  0.69919092  0.28537147     0.40600
C328        C  0.03425252  0.67617942  0.31395933    -0.26500
O329        O  0.94593188  0.66914358  0.36385478    -0.58400
H330        H  0.95348804  0.71195044  0.30986729     0.16200
O331        O  0.06611316  0.71014119  0.26095806    -0.59800
H332        H  0.05738077  0.66681688  0.31565756     0.14700
H333        H  0.08867832  0.63447165  0.42643092     0.46500
H334        H  0.96054604  0.69123906  0.38182023     0.41900
H335        H  0.06135405  0.68402155  0.24985435     0.45400
H336        H  0.91144439  0.58397987  0.35985914     0.36800
C337        C  0.03604888  0.37329348  0.30685785    -0.27400
C338        C  0.00055114  0.35930074  0.32798853     0.02200
C339        C  0.96509641  0.32111294  0.31966771     0.30300
C340        C  0.96563819  0.29747061  0.29115340    -0.19200
C341        C  0.00200105  0.30982516  0.27075064    -0.28600
C342        C  0.03701005  0.34935558  0.27854590     0.44300
C343        C  0.00029159  0.38509546  0.35805134     0.05500
O344        O  0.92935999  0.30646329  0.33919271    -0.57100
H345        H  0.93661337  0.26972689  0.28493909     0.18400
O346        O  0.07213595  0.36529112  0.25808106    -0.63800
H347        H  0.06317185  0.40330050  0.31203341     0.16900
C348        C  0.03223282  0.40125210  0.38347488     0.29100
C349        C  0.03125481  0.42544399  0.41151398    -0.24700
C350        C  0.99815715  0.43318634  0.41527394    -0.24000
C351        C  0.96612847  0.41687435  0.38992225     0.40600
C352        C  0.96755432  0.39340643  0.36158495    -0.26500
O353        O  0.06428738  0.39314224  0.38144456    -0.58400
H354        H  0.05614655  0.43764560  0.43069592     0.16200
O355        O  0.93360988  0.42430329  0.39213705    -0.59800
H356        H  0.94308693  0.38196916  0.34205348     0.14700
H357        H  0.09477688  0.36780466  0.27335615     0.46500
H358        H  0.05379057  0.36653872  0.39330315     0.41900
H359        H  0.94401047  0.45140199  0.38120917     0.45400
H360        H  0.93351079  0.29261093  0.35919008     0.36800
C361        C  0.96399589  0.37074315  0.10257621    -0.27400
C362        C  0.00013883  0.38498709  0.12312998     0.02200
C363        C  0.03489647  0.42404344  0.11597870     0.30300
C364        C  0.03332952  0.44747535  0.08872447    -0.19200
C365        C  0.99706434  0.43348401  0.06849223    -0.28600
C366        C  0.96209724  0.39470223  0.07581890     0.44300
C367        C  0.00114367  0.35919081  0.15198063     0.05500
O368        O  0.07043922  0.44018005  0.13588180    -0.57100
H369        H  0.06053530  0.47729420  0.08393427     0.18400
O370        O  0.92590270  0.37972793  0.05697690    -0.63800
H371        H  0.93706045  0.34065943  0.10704766     0.16900
C372        C  0.96805452  0.34011033  0.17593511     0.29100
C373        C  0.96959865  0.31607158  0.20259821    -0.24700
C374        C  0.00377867  0.30972722  0.20672978    -0.24000
C375        C  0.03846224  0.33167083  0.18396796     0.40600
C376        C  0.03607443  0.35466338  0.15649512    -0.26500
O377        O  0.93417346  0.34534856  0.17409687    -0.58400
H378        H  0.94335903  0.30180272  0.22035237     0.16200
O379        O  0.07634177  0.33491126  0.19031277    -0.59800
H380        H  0.06241531  0.36981370  0.13895299     0.14700
H381        H  0.92786757  0.36228441  0.03808677     0.46500
H382        H  0.94203131  0.37081170  0.18800912     0.41900
H383        H  0.08506909  0.32730103  0.16805266     0.45400
H384        H  0.06529389  0.45384955  0.15620823     0.36800
C385        C  0.57232803  0.61679243  0.12565867    -0.27400
C386        C  0.61315676  0.62462563  0.13046138     0.02200
C387        C  0.62948999  0.60761926  0.10623101     0.30300
C388        C  0.60453221  0.58162212  0.07899006    -0.19200
C389        C  0.56336972  0.57295457  0.07461949    -0.28600
C390        C  0.54767238  0.59163732  0.09780737     0.44300
C391        C  0.63787514  0.64849625  0.16168962     0.05500
O392        O  0.66980548  0.61591068  0.10914528    -0.57100
H393        H  0.61751705  0.56826176  0.06113852     0.18400
O394        O  0.50749077  0.58368341  0.09474998    -0.63800
H395        H  0.55900597  0.62918625  0.14414283     0.16900
C396        C  0.64437556  0.68779222  0.17037617     0.29100
C397        C  0.66958790  0.71007319  0.19907062    -0.24700
C398        C  0.69005630  0.69448915  0.21946981    -0.24000
C399        C  0.68003575  0.65328624  0.21201121     0.40600
C400        C  0.65502302  0.63129928  0.18328083    -0.26500
O401        O  0.62758797  0.70546522  0.15014789    -0.58400
H402        H  0.67220582  0.73942401  0.20507358     0.16200
O403        O  0.69671420  0.63498861  0.23151153    -0.59800
H404        H  0.64912958  0.60044448  0.17775111     0.14700
H405        H  0.50966176  0.60682858  0.08118729     0.46500
H406        H  0.60410883  0.70382577  0.16400679     0.41900
H407        H  0.67329528  0.61445611  0.24583645     0.45400
H408        H  0.68723824  0.64349484  0.09894447     0.36800
C409        C  0.68722949  0.65145742  0.33522287    -0.27400
C410        C  0.64662927  0.64391082  0.34071386     0.02200
C411        C  0.63011241  0.65984423  0.31685154     0.30300
C412        C  0.65451400  0.68402019  0.28919370    -0.19200
C413        C  0.69593232  0.69264811  0.28343475    -0.28600
C414        C  0.71104659  0.67366591  0.30642859     0.44300
C415        C  0.62116764  0.61814707  0.37050944     0.05500
O416        O  0.58973847  0.65144481  0.31988973    -0.57100
H417        H  0.64085642  0.69638892  0.27186722     0.18400
O418        O  0.74792628  0.67448214  0.30087927    -0.63800
H419        H  0.70047799  0.63910150  0.35298890     0.16900
C420        C  0.61789879  0.57989902  0.37733241     0.29100
C421        C  0.59232359  0.55546119  0.40446446    -0.24700
C422        C  0.56895423  0.56799316  0.42500266    -0.24000
C423        C  0.57317001  0.60676211  0.41888372     0.40600
C424        C  0.59908465  0.63139883  0.39198544    -0.26500
O425        O  0.63866960  0.56546059  0.35709273    -0.58400
H426        H  0.58988821  0.52597535  0.40876362     0.16200
O427        O  0.55217079  0.62103296  0.43900963    -0.59800
H428        H  0.60190333  0.66108241  0.38788642     0.14700
H429        H  0.74032094  0.64771584  0.28945118     0.46500
H430        H  0.62069948  0.55238485  0.33627077     0.41900
H431        H  0.57020826  0.63444624  0.45973258     0.45400
H432        H  0.57273044  0.62503669  0.30688096     0.36800
C433        C  0.35623572  0.38408328  0.38590925    -0.27400
C434        C  0.36063078  0.35021162  0.37658527     0.02200
C435        C  0.39121735  0.34519938  0.39357441     0.30300
C436        C  0.41787806  0.37471476  0.41825435    -0.19200
C437        C  0.41428313  0.40934831  0.42687360    -0.28600
C438        C  0.38225309  0.41315614  0.41098565     0.44300
C439        C  0.33589829  0.32308780  0.34675708     0.05500
O440        O  0.39570034  0.31186251  0.38592116    -0.57100
H441        H  0.44156877  0.37050533  0.43053868     0.18400
O442        O  0.37682862  0.44589499  0.41877553    -0.63800
H443        H  0.33336605  0.38888905  0.37282234     0.16900
C444        C  0.29260709  0.30694237  0.34443391     0.29100
C445        C  0.27143466  0.28803088  0.31325606    -0.24700
C446        C  0.29293761  0.28614414  0.28314414    -0.24000
C447        C  0.33532104  0.29717538  0.28763615     0.40600
C448        C  0.35645956  0.31634182  0.31876632    -0.26500
O449        O  0.27061850  0.30874321  0.37283301    -0.58400
H450        H  0.23802362  0.27522773  0.31297007     0.16200
O451        O  0.35671831  0.29051471  0.26123616    -0.59800
H452        H  0.38962152  0.32758681  0.32033740     0.14700
H453        H  0.35518135  0.43601316  0.43727369     0.46500
H454        H  0.26111083  0.32808585  0.36649205     0.41900
H455        H  0.38050459  0.31768414  0.25527480     0.45400
H456        H  0.37503439  0.28957059  0.40088036     0.36800
C457        C  0.39074995  0.36095937  0.11341713    -0.27400
C458        C  0.35825365  0.36670549  0.12534073     0.02200
C459        C  0.35192872  0.39664997  0.11003153     0.30300
C460        C  0.37889522  0.42142688  0.08376876    -0.19200
C461        C  0.41246708  0.41675274  0.07231677    -0.28600
C462        C  0.41762379  0.38545260  0.08698443     0.44300
C463        C  0.33357334  0.34368500  0.15582661     0.05500
O464        O  0.32033949  0.40284013  0.12139588    -0.57100
H465        H  0.37386446  0.44484178  0.07279208     0.18400
O466        O  0.44940858  0.37914445  0.07647278    -0.63800
H467        H  0.39583550  0.33795428  0.12522430     0.16900
C468        C  0.29861350  0.30419507  0.15216957     0.29100
C469        C  0.27819280  0.28190859  0.18194927    -0.24700
C470        C  0.29336888  0.29732043  0.21608190    -0.24000
C471        C  0.32612533  0.33931983  0.21915425     0.40600
C472        C  0.34598697  0.36149647  0.18911006    -0.26500
O473        O  0.28497775  0.28659616  0.11963998    -0.58400
H474        H  0.25160954  0.25116909  0.17837775     0.16200
O475        O  0.33670158  0.36033929  0.25070938    -0.59800
H476        H  0.37149401  0.39299244  0.19184256     0.14700
H477        H  0.43732568  0.35793336  0.05749940     0.46500
H478        H  0.26555535  0.29580363  0.11217106     0.41900
H479        H  0.36734235  0.37368619  0.25296771     0.45400
H480        H  0.29515056  0.38192258  0.10852253     0.36800
O481        O  0.47320376  0.44277216  0.53572319    -0.71600
O482        O  0.54455664  0.51156294  0.96413667    -0.71800
O483        O  0.54444956  0.51639415  0.53445340    -0.71600
O484        O  0.47307120  0.43794585  0.96586486    -0.71700
O485        O  0.43912504  0.47061039  0.96225775    -0.71600
O486        O  0.50653168  0.54523946  0.53411539    -0.71600
O487        O  0.51043453  0.54431492  0.96387363    -0.71600
O488        O  0.43573637  0.47181563  0.53202993    -0.71800
V489        V  0.50822679  0.47783165  0.49998446     1.35200
V490        V  0.47370953  0.50746043  0.99802023     1.35200
C491        C  0.44168515  0.44485182  0.54557368     0.77700
C492        C  0.54018245  0.54023120  0.95218183     0.77700
C493        C  0.53710998  0.54372619  0.54652363     0.77600
C494        C  0.44346311  0.44063622  0.95262405     0.77600
O495        O  0.03214937  0.55920401  0.95826256    -0.71600
O496        O  0.03072236  0.48901403  0.52867172    -0.71800
O497        O  0.03167332  0.48746352  0.95809297    -0.71600
O498        O  0.03084528  0.56047375  0.52833674    -0.71700
O499        O  0.96320325  0.52638777  0.52794228    -0.71600
O500        O  0.96397848  0.45470772  0.95668104    -0.71600
O501        O  0.96307147  0.45461719  0.52743428    -0.71600
O502        O  0.96445472  0.52612007  0.95748497    -0.71800
V503        V  0.02998845  0.52328067  0.99328689     1.35200
V504        V  0.96495844  0.49102641  0.49251041     1.35200
C505        C  0.99869418  0.55507346  0.94611854     0.77700
C506        C  0.99679595  0.45991598  0.54027697     0.77700
C507        C  0.99790933  0.45927416  0.94475579     0.77600
C508        C  0.99685990  0.55609138  0.54000909     0.77600
O509        O  0.45860215  0.97101359  0.54147459    -0.71600
O510        O  0.52946670  0.96763099  0.97068737    -0.71800
O511        O  0.52942868  0.96865988  0.54059486    -0.71600
O512        O  0.45761758  0.96923985  0.97138019    -0.71700
O513        O  0.49231069  0.03599774  0.97231879    -0.71600
O514        O  0.56596840  0.03537830  0.54062804    -0.71600
O515        O  0.56404085  0.03442796  0.97045435    -0.71600
O516        O  0.49484472  0.03777686  0.54248321    -0.71800
V517        V  0.49460696  0.97077892  0.50588713     1.35200
V518        V  0.52843172  0.03437722  0.00641452     1.35200
C519        C  0.46493576  0.00494326  0.55441594     0.77700
C520        C  0.55926947  0.00062944  0.95877195     0.77700
C521        C  0.55981400  0.00164664  0.55259355     0.77600
C522        C  0.46215182  0.00266862  0.96032914     0.77600
C523        C  0.00294555  0.73275232  0.74776850    -0.02300
C524        C  0.00226464  0.28337294  0.73850599    -0.02300
C525        C  0.27035157  0.26870065  0.74742950    -0.02300
C526        C  0.28734772  0.00424615  0.75874266    -0.02300
C527        C  0.73554666  0.00016035  0.75462638    -0.02300
C528        C  0.71960785  0.71922728  0.75095361    -0.02300
C529        C  0.76048604  0.91516642  0.77944518    -0.27400
C530        C  0.73994912  0.88505810  0.75320936     0.02200
C531        C  0.71771086  0.89192927  0.72741703     0.30300
C532        C  0.71654123  0.92847868  0.72780320    -0.19200
C533        C  0.73840462  0.96013588  0.75320657    -0.28600
C534        C  0.75943132  0.95194784  0.77994209     0.44300
C535        C  0.73894365  0.84512938  0.75427636     0.05500
O536        O  0.69439008  0.86167827  0.70308538    -0.57100
H537        H  0.69653845  0.93040215  0.70865945     0.18400
O538        O  0.78016209  0.98039486  0.80621549    -0.63800
H539        H  0.77722311  0.91001490  0.79987608     0.16900
C540        C  0.75156459  0.83023083  0.72549638     0.29100
C541        C  0.74566901  0.79047095  0.72569405    -0.24700
C542        C  0.72673514  0.76394943  0.75424300    -0.24000
C543        C  0.71882565  0.78153307  0.78478613     0.40600
C544        C  0.72386967  0.82101118  0.78404851    -0.26500
O545        O  0.76931076  0.85412679  0.69678020    -0.58400
H546        H  0.75484164  0.77964380  0.70272000     0.16200
O547        O  0.70746647  0.76173070  0.81604386    -0.59800
H548        H  0.71563299  0.83278912  0.80700700     0.14700
H549        H  0.76295702  0.96875946  0.82747537     0.46500
H550        H  0.79923037  0.87197979  0.70279351     0.41900
H551        H  0.73396485  0.77087509  0.82867948     0.45400
H552        H  0.70886476  0.87206681  0.68045516     0.36800
C553        C  0.29193263  0.10908956  0.78278161    -0.27400
C554        C  0.27128977  0.11291223  0.75402068     0.02200
C555        C  0.25665650  0.08246133  0.72757308     0.30300
C556        C  0.26172572  0.04827534  0.73054541    -0.19200
C557        C  0.28218007  0.04324194  0.75954935    -0.28600
C558        C  0.29881399  0.07578883  0.78529918     0.44300
C559        C  0.26840684  0.15056213  0.75035717     0.05500
O560        O  0.23791883  0.08616299  0.69827864    -0.57100
H561        H  0.24961582  0.02522619  0.70967583     0.18400
O562        O  0.32366882  0.07733496  0.81214590    -0.63800
H563        H  0.30473733  0.13329510  0.80270402     0.16900
C564        C  0.24369173  0.15926126  0.77283983     0.29100
C565        C  0.24341312  0.19616178  0.76979475    -0.24700
C566        C  0.26782116  0.22586168  0.74452627    -0.24000
C567        C  0.29310284  0.21647091  0.72209753     0.40600
C568        C  0.29252629  0.17908523  0.72505354    -0.26500
O569        O  0.21950424  0.13174774  0.79783948    -0.58400
H570        H  0.22465919  0.20222917  0.78814547     0.16200
O571        O  0.32205494  0.24480982  0.69987076    -0.59800
H572        H  0.31270305  0.17312010  0.70831177     0.14700
H573        H  0.35269715  0.09638754  0.80458232     0.46500
H574        H  0.23584082  0.14215157  0.81980724     0.41900
H575        H  0.31373008  0.23244090  0.67602852     0.45400
H576        H  0.20843397  0.07571203  0.70502255     0.36800
C577        C  0.08200506  0.24873594  0.71311210    -0.27400
C578        C  0.10734344  0.26035405  0.74294630     0.02200
C579        C  0.09571856  0.27482562  0.77265964     0.30300
C580        C  0.06226640  0.28179305  0.77115987    -0.19200
C581        C  0.03925759  0.27492088  0.74001548    -0.28600
C582        C  0.04758187  0.25476850  0.71178683     0.44300
C583        C  0.14770671  0.26095613  0.74259581     0.05500
O584        O  0.11731779  0.28272331  0.80345339    -0.57100
H585        H  0.05434912  0.29212397  0.79505499     0.18400
O586        O  0.02223022  0.24110161  0.68279808    -0.63800
H587        H  0.08957096  0.23610755  0.69035539     0.16900
C588        C  0.15105991  0.22631209  0.73356200     0.29100
C589        C  0.18997870  0.22852963  0.73523032    -0.24700
C590        C  0.22643712  0.26499038  0.74657925    -0.24000
C591        C  0.22253886  0.30020150  0.75362249     0.40600
C592        C  0.18384182  0.29775714  0.75170763    -0.26500
O593        O  0.11659307  0.19014683  0.72299045    -0.58400
H594        H  0.19127924  0.20160042  0.72682558     0.16200
O595        O  0.25669091  0.33768356  0.76195114    -0.59800
H596        H  0.18211785  0.32520144  0.75743893     0.14700
H597        H  0.04043642  0.25475954  0.66237516     0.46500
H598        H  0.10443082  0.17476550  0.74475983     0.41900
H599        H  0.25202530  0.34454686  0.78615838     0.45400
H600        H  0.10347143  0.25626370  0.81591093     0.36800
C601        C  0.85466454  0.08232000  0.74467278    -0.27400
C602        C  0.85344857  0.11871190  0.74831859     0.02200
C603        C  0.81505434  0.11661139  0.75333251     0.30300
C604        C  0.77842893  0.07838898  0.75476609    -0.19200
C605        C  0.77869857  0.04087470  0.75237026    -0.28600
C606        C  0.81796168  0.04369915  0.74570151     0.44300
C607        C  0.89205062  0.15895460  0.74480051     0.05500
O608        O  0.81297278  0.15189555  0.75663202    -0.57100
H609        H  0.74925479  0.07795505  0.75850853     0.18400
O610        O  0.82134411  0.00966931  0.73854588    -0.63800
H611        H  0.88421013  0.08386686  0.73974755     0.16900
C612        C  0.92116416  0.17595748  0.77202033     0.29100
C613        C  0.95628800  0.21511501  0.76864856    -0.24700
C614        C  0.96312348  0.23903915  0.73850869    -0.24000
C615        C  0.93501664  0.21966253  0.70995034     0.40600
C616        C  0.89966453  0.18044955  0.71374452    -0.26500
O617        O  0.91475725  0.15520293  0.80257643    -0.58400
H618        H  0.97776799  0.22770232  0.79048488     0.16200
O619        O  0.94317733  0.23663576  0.67740358    -0.59800
H620        H  0.87819783  0.16641333  0.69199882     0.14700
H621        H  0.82692718  0.01018283  0.71307956     0.46500
H622        H  0.92952717  0.13957440  0.79944433     0.41900
H623        H  0.91886612  0.23951364  0.67132954     0.45400
H624        H  0.81652177  0.15895004  0.78196931     0.36800
C625        C  0.20168373  0.88788943  0.75838421    -0.27400
C626        C  0.16448580  0.88887427  0.75995070     0.02200
C627        C  0.16695553  0.92727225  0.76383370     0.30300
C628        C  0.20586152  0.96371413  0.76444125    -0.19200
C629        C  0.24369953  0.96351280  0.75964655    -0.28600
C630        C  0.24068726  0.92425544  0.75819205     0.44300
C631        C  0.12352189  0.84975494  0.75656848     0.05500
O632        O  0.13142794  0.92973004  0.76666497    -0.57100
H633        H  0.20553462  0.99195950  0.76886881     0.18400
O634        O  0.27590088  0.92106675  0.75690583    -0.63800
H635        H  0.20056914  0.85856752  0.75694615     0.16900
C636        C  0.11626668  0.82160708  0.72894952     0.29100
C637        C  0.07809740  0.78472049  0.72612170    -0.24700
C638        C  0.04486427  0.77494901  0.74971856    -0.24000
C639        C  0.05312412  0.80309901  0.77817944     0.40600
C640        C  0.09163317  0.84002434  0.78104298    -0.26500
O641        O  0.14654158  0.82969054  0.70442083    -0.58400
H642        H  0.07578962  0.76345412  0.70568417     0.16200
O643        O  0.02314605  0.79524343  0.80295773    -0.59800
H644        H  0.09677193  0.86083726  0.80293481     0.14700
H645        H  0.27515731  0.90791802  0.73393964     0.46500
H646        H  0.14195271  0.84501418  0.68594884     0.41900
H647        H  0.03298283  0.78845665  0.82443233     0.45400
H648        H  0.12380544  0.93168818  0.74232231     0.36800
C649        C  0.92394347  0.77305481  0.74148948    -0.27400
C650        C  0.88592694  0.73620440  0.74466341     0.02200
C651        C  0.88603892  0.69920548  0.74733538     0.30300
C652        C  0.92377139  0.69947244  0.74759664    -0.19200
C653        C  0.96288725  0.73650833  0.74629418    -0.28600
C654        C  0.96208429  0.77355239  0.74128379     0.44300
C655        C  0.84596938  0.73608907  0.74426107     0.05500
O656        O  0.84928365  0.66245944  0.75000604    -0.57100
H657        H  0.92247620  0.67023578  0.74991382     0.18400
O658        O  0.99769641  0.81027866  0.73503121    -0.63800
H659        H  0.92402534  0.80161278  0.73821068     0.16900
C660        C  0.83432473  0.75292794  0.77218365     0.29100
C661        C  0.79450245  0.74846525  0.77280488    -0.24700
C662        C  0.76473240  0.72632691  0.74613843    -0.24000
C663        C  0.77965431  0.71508752  0.71568518     0.40600
C664        C  0.81891388  0.71830053  0.71582576    -0.26500
O665        O  0.86070151  0.77164872  0.80001462    -0.58400
H666        H  0.78584328  0.76026782  0.79544566     0.16200
O667        O  0.75770112  0.70265264  0.68494694    -0.59800
H668        H  0.82866385  0.70745163  0.69317644     0.18000
H669        H  0.99611419  0.81630636  0.71018432     0.46500
H670        H  0.87634821  0.80134764  0.79454738     0.41900
H671        H  0.76763585  0.72813230  0.67146094     0.45400
H672        H  0.84265117  0.65951520  0.77533621     0.36800
C673        C  0.60053389  0.96576509  0.62679380    -0.27400
C674        C  0.63836070  0.00165667  0.63463362     0.02200
C675        C  0.65097440  0.03702635  0.61486563     0.30300
C676        C  0.62543591  0.03649766  0.58795845    -0.19200
C677        C  0.58709663  0.00079309  0.58023781    -0.28600
C678        C  0.57497437  0.96502451  0.59980170     0.44300
C679        C  0.66336161  0.00265824  0.66478404     0.05500
O680        O  0.68796098  0.07245421  0.62203223    -0.57100
H681        H  0.63557693  0.06424787  0.57327493     0.18400
O682        O  0.53799689  0.92933087  0.59321048    -0.63800
H683        H  0.59056348  0.93838459  0.64198894     0.16900
C684        C  0.65058285  0.00487520  0.69892998     0.29100
C685        C  0.67448673  0.00612523  0.72740757    -0.24700
C686        C  0.71038993  0.00238792  0.72290572    -0.24000
C687        C  0.72445344  0.00335276  0.68795879     0.40600
C688        C  0.70071179  0.00281954  0.65948684    -0.26500
O689        O  0.61527262  0.00714066  0.70471132    -0.58400
H690        H  0.66437173  0.01043148  0.75287426     0.16200
O691        O  0.76057085  0.00294152  0.68128493    -0.59800
H692        H  0.71138138  0.00220689  0.63312163     0.14700
H693        H  0.51730259  0.93088174  0.60883259     0.46500
H694        H  0.59277847  0.97837201  0.70863831     0.41900
H695        H  0.78121365  0.03142655  0.67445602     0.45400
H696        H  0.68134022  0.08690180  0.64077108     0.36800
C697        C  0.61998997  0.96549748  0.90119656    -0.27400
C698        C  0.64269824  0.99980939  0.88003467     0.02200
C699        C  0.63855648  0.03473371  0.88539521     0.30300
C700        C  0.61147930  0.03464158  0.91123177    -0.19200
C701        C  0.58812769  0.00000996  0.93203521    -0.28600
C702        C  0.59312823  0.96547569  0.92714934     0.44300
C703        C  0.66833243  0.99773734  0.85094168     0.05500
O704        O  0.65883700  0.06803500  0.86406869    -0.57100
H705        H  0.60809657  0.06148395  0.91444147     0.18400
O706        O  0.57202647  0.93150983  0.94758553    -0.63800
H707        H  0.62304049  0.93851083  0.89747958     0.16900
C708        C  0.71076152  0.02740711  0.84753007     0.29100
C709        C  0.73283826  0.02717104  0.81774528    -0.24700
C710        C  0.71316780  0.99788820  0.79014758    -0.24000
C711        C  0.67196807  0.96497433  0.79643299     0.40600
C712        C  0.64981280  0.96578071  0.82596546    -0.26500
O713        O  0.73101100  0.05698956  0.87310808    -0.58400
H714        H  0.76555996  0.05020485  0.81682973     0.16200
O715        O  0.65175044  0.93351760  0.77234288    -0.59800
H716        H  0.61745692  0.94187669  0.82877933     0.14700
H717        H  0.58975788  0.93755393  0.96861441     0.46500
H718        H  0.73814509  0.04328656  0.89136853     0.41900
H719        H  0.65198204  0.90957555  0.78239268     0.45400
H720        H  0.68061818  0.09033363  0.87892215     0.36800
C721        C  0.41074347  0.03708013  0.89381273    -0.27400
C722        C  0.37676215  0.99925274  0.88290578     0.02200
C723        C  0.37015883  0.96283588  0.89808143     0.30300
C724        C  0.39784413  0.96448991  0.92350947    -0.19200
C725        C  0.43256785  0.00231296  0.93419674    -0.28600
C726        C  0.43842301  0.03891470  0.91936142     0.44300
C727        C  0.35246443  0.99777833  0.85208678     0.05500
O728        O  0.33808945  0.92532516  0.88682686    -0.57100
H729        H  0.39246526  0.93589659  0.93439233     0.18400
O730        O  0.47202071  0.07649144  0.92839950    -0.63800
H731        H  0.41653087  0.06521938  0.88166261     0.16900
C732        C  0.31409385  0.99630186  0.85490704     0.29100
C733        C  0.29374077  0.99758180  0.82465070    -0.24700
C734        C  0.31140527  0.00124483  0.79092037    -0.24000
C735        C  0.34784407  0.99739452  0.78872796     0.40600
C736        C  0.36826146  0.99709596  0.81911204    -0.26500
O737        O  0.29677974  0.99463711  0.88709497    -0.58400
H738        H  0.26454754  0.99729088  0.82757884     0.16200
O739        O  0.36137812  0.98903818  0.75776651    -0.59800
H740        H  0.39639928  0.99524099  0.81685054     0.14700
H741        H  0.46151222  0.08801674  0.94672432     0.46500
H742        H  0.27582296  0.96514454  0.89028097     0.41900
H743        H  0.39115992  0.01073624  0.75537989     0.45400
H744        H  0.31346113  0.92095397  0.90062452     0.36800
C745        C  0.37581471  0.04404221  0.68967198    -0.27400
C746        C  0.35987172  0.01213862  0.66446504     0.02200
C747        C  0.31793213  0.98053641  0.66709131     0.30300
C748        C  0.29391653  0.97922728  0.69599812    -0.19200
C749        C  0.31124136  0.00843630  0.72379864    -0.28600
C750        C  0.35165163  0.04315166  0.71837708     0.44300
C751        C  0.38737271  0.01100712  0.63637265     0.05500
O752        O  0.30015065  0.95018389  0.64174114    -0.57100
H753        H  0.26179487  0.95464049  0.69634951     0.18400
O754        O  0.36963684  0.07427379  0.74302621    -0.63800
H755        H  0.40786225  0.06893418  0.68815091     0.16900
C756        C  0.41290691  0.04571057  0.61608506     0.29100
C757        C  0.43797639  0.04324807  0.58958854    -0.24700
C758        C  0.43822791  0.00651138  0.58278007    -0.24000
C759        C  0.41316084  0.97201606  0.60344576     0.40600
C760        C  0.38843151  0.97460628  0.63010182    -0.26500
O761        O  0.41218285  0.08158165  0.62088873    -0.58400
H762        H  0.45687449  0.07013892  0.57399699     0.16200
O763        O  0.41357299  0.93599669  0.59866325    -0.59800
H764        H  0.37008446  0.94797174  0.64611958     0.14700
H765        H  0.36843988  0.09771055  0.73295989     0.46500
H766        H  0.43952663  0.10149052  0.63152303     0.41900
H767        H  0.38918044  0.91837941  0.58350098     0.45400
H768        H  0.29120565  0.96201467  0.62315120     0.36800
C769        C  0.03142024  0.64467015  0.60640028    -0.27400
C770        C  0.99330847  0.63500595  0.62198315     0.02200
C771        C  0.95632673  0.60077938  0.60943434     0.30300
C772        C  0.95786878  0.57607887  0.58216542    -0.19200
C773        C  0.99618260  0.58457611  0.56730318    -0.28600
C774        C  0.03313375  0.61986714  0.57927204     0.44300
C775        C  0.99297709  0.65877418  0.65321807     0.05500
O776        O  0.91852904  0.59141710  0.62362932    -0.57100
H777        H  0.92895065  0.54963985  0.57320832     0.18400
O778        O  0.07123836  0.62990060  0.56538512    -0.63800
H779        H  0.06011923  0.67091485  0.61600222     0.16900
C780        C  0.98479172  0.64107858  0.68629600     0.29100
C781        C  0.98717652  0.66435953  0.71606421    -0.24700
C782        C  0.99911391  0.70649076  0.71412785    -0.24000
C783        C  0.00289035  0.72245213  0.68006612     0.40600
C784        C  0.00150337  0.69927834  0.65026259    -0.26500
O785        O  0.97453310  0.60085185  0.68986646    -0.58400
H786        H  0.97909287  0.64857111  0.74063898     0.16200
O787        O  0.00975516  0.76143444  0.67567527    -0.59800
H788        H  0.00674202  0.71288338  0.62470767     0.14700
H789        H  0.07686134  0.65080836  0.54754618     0.46500
H790        H  0.00152231  0.60180479  0.69263257     0.41900
H791        H  0.98267828  0.75756662  0.66764721     0.45400
H792        H  0.91075822  0.56776382  0.63900781     0.36800
C793        C  0.03499176  0.64976493  0.89053191    -0.27400
C794        C  0.00128597  0.63664271  0.86754208     0.02200
C795        C  0.96654865  0.59670762  0.87055773     0.30300
C796        C  0.96586764  0.57052011  0.89638828    -0.19200
C797        C  0.99972925  0.58349702  0.91936374    -0.28600
C798        C  0.03448399  0.62359958  0.91622772     0.44300
C799        C  0.00349051  0.66411304  0.83943772     0.05500
O800        O  0.93413445  0.58233465  0.84720574    -0.57100
H801        H  0.93913821  0.53968352  0.89796194     0.18400
O802        O  0.06759425  0.63805348  0.93883888    -0.63800
H803        H  0.06185440  0.68046916  0.88850849     0.16900
C804        C  0.97488213  0.67797978  0.83773522     0.29100
C805        C  0.97556203  0.70114607  0.80935499    -0.24700
C806        C  0.00410070  0.71037376  0.78138856    -0.24000
C807        C  0.03538066  0.69948239  0.78540147     0.40600
C808        C  0.03456926  0.67643829  0.81395802    -0.26500
O809        O  0.94610184  0.66913561  0.86380809    -0.58400
H810        H  0.95366034  0.71202911  0.80988433     0.16200
O811        O  0.06645679  0.71051938  0.76100935    -0.59800
H812        H  0.05773504  0.66712377  0.81564917     0.14700
H813        H  0.08889748  0.63426555  0.92616658     0.46500
H814        H  0.96072988  0.69107091  0.88189546     0.41900
H815        H  0.06174603  0.68443393  0.74986790     0.45400
H816        H  0.91159653  0.58400226  0.85987453     0.36800
C817        C  0.03584740  0.37304892  0.80695935    -0.27400
C818        C  0.00034190  0.35903781  0.82807927     0.02200
C819        C  0.96487627  0.32087538  0.81972204     0.30300
C820        C  0.96542546  0.29726418  0.79118727    -0.19200
C821        C  0.00180599  0.30962599  0.77080310    -0.28600
C822        C  0.03681408  0.34914607  0.77862472     0.44300
C823        C  0.00008679  0.38481619  0.85814892     0.05500
O824        O  0.92912360  0.30622550  0.83922593    -0.57100
H825        H  0.93639530  0.26953887  0.78494533     0.18400
O826        O  0.07194827  0.36510211  0.75816900    -0.63800
H827        H  0.06297320  0.40304625  0.81216124     0.16900
C828        C  0.03201973  0.40093987  0.88357865     0.29100
C829        C  0.03110260  0.42520501  0.91158070    -0.24700
C830        C  0.99806659  0.43304214  0.91529725    -0.24000
C831        C  0.96602455  0.41672889  0.88995619     0.40600
C832        C  0.96739516  0.39319372  0.86165369    -0.26500
O833        O  0.06401051  0.39273456  0.88158368    -0.58400
H834        H  0.05599062  0.43739079  0.93076555     0.16200
O835        O  0.93355016  0.42422644  0.89214445    -0.59800
H836        H  0.94293137  0.38177110  0.84211971     0.14700
H837        H  0.09459747  0.36765058  0.77345361     0.46500
H838        H  0.05346142  0.36614896  0.89348576     0.41900
H839        H  0.94398153  0.45130397  0.88116817     0.45400
H840        H  0.93325831  0.29237503  0.85923382     0.36800
C841        C  0.96406853  0.37069434  0.60258146    -0.27400
C842        C  0.00018228  0.38493052  0.62317106     0.02200
C843        C  0.03495006  0.42399150  0.61603742     0.30300
C844        C  0.03341154  0.44743940  0.58877592    -0.19200
C845        C  0.99716536  0.43345843  0.56851817    -0.28600
C846        C  0.96219790  0.39466427  0.57581949     0.44300
C847        C  0.00113937  0.35911331  0.65203431     0.05500
O848        O  0.07047193  0.44011955  0.63596672    -0.57100
H849        H  0.06061787  0.47726373  0.58400423     0.18400
O850        O  0.92602354  0.37968663  0.55694821    -0.63800
H851        H  0.93712950  0.34060623  0.60703009     0.16900
C852        C  0.96800433  0.34000380  0.67594727     0.29100
C853        C  0.96949392  0.31593047  0.70260993    -0.24700
C854        C  0.00365377  0.30956171  0.70677654    -0.24000
C855        C  0.03837859  0.33152826  0.68405574     0.40600
C856        C  0.03605490  0.35457107  0.65659219    -0.26500
O857        O  0.93412807  0.34524535  0.67406922    -0.58400
H858        H  0.94322703  0.30165476  0.72033653     0.16200
O859        O  0.07623932  0.33474255  0.69043434    -0.59800
H860        H  0.06243096  0.36974063  0.63908752     0.14700
H861        H  0.92804179  0.36229887  0.53803542     0.46500
H862        H  0.94198627  0.37072876  0.68795030     0.41900
H863        H  0.08497196  0.32711198  0.66818706     0.45400
H864        H  0.06527958  0.45372343  0.65631677     0.36800
C865        C  0.57240472  0.61672149  0.62571331    -0.27400
C866        C  0.61323054  0.62454336  0.63050096     0.02200
C867        C  0.62954246  0.60751755  0.60627102     0.30300
C868        C  0.60456957  0.58152467  0.57903236    -0.19200
C869        C  0.56341035  0.57287522  0.57467033    -0.28600
C870        C  0.54773039  0.59156303  0.59787108     0.44300
C871        C  0.63796781  0.64843084  0.66171359     0.05500
O872        O  0.66985221  0.61579051  0.60918138    -0.57100
H873        H  0.61754063  0.56815681  0.56117438     0.18400
O874        O  0.50754882  0.58361421  0.59483252    -0.63800
H875        H  0.55910293  0.62913300  0.64420091     0.16900
C876        C  0.64454926  0.68776953  0.67033673     0.29100
C877        C  0.66975162  0.71005632  0.69903336    -0.24700
C878        C  0.69013798  0.69443570  0.71949453    -0.24000
C879        C  0.68005218  0.65320285  0.71208499     0.40600
C880        C  0.65504437  0.63120823  0.68335371    -0.26500
O881        O  0.62785145  0.70547503  0.65004270    -0.58400
H882        H  0.67242786  0.73944183  0.70498339     0.16200
O883        O  0.69666173  0.63487958  0.73163789    -0.59800
H884        H  0.64909704  0.60032796  0.67786203     0.14700
H885        H  0.50971882  0.60677973  0.58130187     0.46500
H886        H  0.60435568  0.70387345  0.66384878     0.41900
H887        H  0.67321847  0.61440353  0.74597640     0.45400
H888        H  0.68729599  0.64338291  0.59899784     0.36800
C889        C  0.68730052  0.65149092  0.83530501    -0.27400
C890        C  0.64667140  0.64388494  0.84073727     0.02200
C891        C  0.63013903  0.65975334  0.81683066     0.30300
C892        C  0.65454942  0.68392083  0.78917514    -0.19200
C893        C  0.69599703  0.69260717  0.78346830    -0.28600
C894        C  0.71114176  0.67371039  0.80652498     0.44300
C895        C  0.62119291  0.61812068  0.87051858     0.05500
O896        O  0.58974224  0.65129651  0.81982527    -0.57100
H897        H  0.64087715  0.69623970  0.77181115     0.18400
O898        O  0.74808604  0.67463485  0.80106298    -0.63800
H899        H  0.70055266  0.63917685  0.85311115     0.16900
C900        C  0.61789377  0.57985771  0.87732122     0.29100
C901        C  0.59229222  0.55540836  0.90443583    -0.24700
C902        C  0.56893838  0.56795499  0.92497957    -0.24000
C903        C  0.57319039  0.60674303  0.91888201     0.40600
C904        C  0.59911923  0.63138306  0.89199265    -0.26500
O905        O  0.63866569  0.56542217  0.85707922    -0.58400
H906        H  0.58982942  0.52590809  0.90872110     0.16200
O907        O  0.55221951  0.62103165  0.93902501    -0.59800
H908        H  0.60195924  0.66107684  0.88789844     0.14700
H909        H  0.74058599  0.64795514  0.78951471     0.46500
H910        H  0.62072601  0.55240232  0.83623208     0.41900
H911        H  0.57025549  0.63440596  0.95975546     0.45400
H912        H  0.57277996  0.62488408  0.80681177     0.36800
C913        C  0.35614463  0.38392986  0.88603379    -0.27400
C914        C  0.36061232  0.35011760  0.87664897     0.02200
C915        C  0.39126550  0.34515828  0.89358020     0.30300
C916        C  0.41792649  0.37468051  0.91825641    -0.19200
C917        C  0.41426359  0.40926417  0.92692525    -0.28600
C918        C  0.38215770  0.41300349  0.91110618     0.44300
C919        C  0.33589532  0.32302823  0.84680251     0.05500
O920        O  0.39581948  0.31187526  0.88586715    -0.57100
H921        H  0.44167562  0.37052226  0.93049122     0.18400
O922        O  0.37664911  0.44567756  0.91896068    -0.63800
H923        H  0.33322358  0.38869643  0.87299243     0.16900
C924        C  0.29259967  0.30685852  0.84448701     0.29100
C925        C  0.27144167  0.28802517  0.81328650    -0.24700
C926        C  0.29295726  0.28621716  0.78315380    -0.24000
C927        C  0.33535365  0.29727921  0.78762632     0.40600
C928        C  0.35647913  0.31638167  0.81877523    -0.26500
O929        O  0.27059345  0.30855606  0.87291591    -0.58400
H930        H  0.23802723  0.27520047  0.81300487     0.16200
O931        O  0.35676976  0.29069147  0.76119755    -0.59800
H932        H  0.38964708  0.32765335  0.82033596     0.14700
H933        H  0.35504925  0.43574378  0.93749922     0.46500
H934        H  0.26103551  0.32787518  0.86663025     0.41900
H935        H  0.38057594  0.31787456  0.75529714     0.45400
H936        H  0.37521814  0.28955566  0.90084058     0.36800
C937        C  0.39068637  0.36086219  0.61335280    -0.27400
C938        C  0.35822594  0.36664904  0.62530831     0.02200
C939        C  0.35194208  0.39663645  0.61003276     0.30300
C940        C  0.37891074  0.42141141  0.58377152    -0.19200
C941        C  0.41245292  0.41670299  0.57229212    -0.28600
C942        C  0.41757104  0.38536382  0.58692694     0.44300
C943        C  0.33355449  0.34364582  0.65580490     0.05500
O944        O  0.32039909  0.40287923  0.62143572    -0.57100
H945        H  0.37391104  0.44485890  0.57282300     0.18400
O946        O  0.44933438  0.37903157  0.57639596    -0.63800
H947        H  0.39574379  0.33782764  0.62513669     0.16900
C948        C  0.29859595  0.30414973  0.65216829     0.29100
C949        C  0.27816640  0.28189935  0.68196056    -0.24700
C950        C  0.29333958  0.29735043  0.71608600    -0.24000
C951        C  0.32608592  0.33935435  0.71913383     0.40600
C952        C  0.34595230  0.36149833  0.68907734    -0.26500
O953        O  0.28496906  0.28650779  0.61965002    -0.58400
H954        H  0.25158895  0.25115291  0.67840736     0.16200
O955        O  0.33665244  0.36040318  0.75067561    -0.59800
H956        H  0.37145200  0.39300016  0.69179139     0.14700
H957        H  0.43723860  0.35784222  0.55740650     0.46500
H958        H  0.26579845  0.29596226  0.61203386     0.41900
H959        H  0.36729525  0.37377854  0.75293236     0.45400
H960        H  0.29513976  0.38185592  0.60870484     0.36800
loop_ 
_geom_bond_atom_site_label_1 
_geom_bond_atom_site_label_2 
_geom_bond_distance 
_geom_bond_site_symmetry_2 
_ccdc_geom_bond_type 
O1            V9   1.901   1_554  S
O1           C11   1.265       .  A
O2          V489   1.904       .  S
O2           C12   1.266       .  A
O3            V9   1.906   1_554  S
O3           C13   1.267       .  A
O4          V489   1.905       .  S
O4           C14   1.266       .  A
O5           V10   1.896       .  S
O5           C14   1.264       .  A
O6          V490   1.898   1_554  S
O6           C13   1.264       .  A
O7           V10   1.904       .  S
O7           C12   1.266       .  A
O8          V490   1.900   1_554  S
O8           C11   1.265       .  A
V9          O482   1.903       .  S
V9          O484   1.905       .  S
V9          V490   2.084       .  T
V10         O486   1.898       .  S
V10         O488   1.900       .  S
V10         V489   2.084       .  T
C11         C461   1.486       .  S
C12         C422   1.488       .  S
C13         C389   1.484       .  S
C14         C437   1.487       .  S
O15          V23   1.898       .  S
O15          C25   1.264   1_455  A
O16         V503   1.900   1_554  S
O16          C26   1.265   1_455  A
O17          V23   1.906       .  S
O17          C27   1.266   1_455  A
O18         V503   1.903   1_554  S
O18          C28   1.265   1_455  A
O19          V24   1.901   1_554  S
O19          C28   1.266       .  A
O20         V504   1.899       .  S
O20          C27   1.264       .  A
O21          V24   1.911   1_554  S
O21          C26   1.267       .  A
O22         V504   1.907       .  S
O22          C25   1.266       .  A
V23         O496   1.900       .  S
V23         O498   1.902       .  S
V23         V504   2.085   1_455  T
V24         O500   1.899       .  S
V24         O502   1.907       .  S
V24         V503   2.085   1_655  T
C25         C317   1.484       .  S
C26         C365   1.491       .  S
C27         C350   1.483       .  S
C28         C293   1.488       .  S
O29          V37   1.901       .  S
O29          C39   1.265   1_565  A
O30         V517   1.903       .  S
O30          C40   1.266   1_565  A
O31          V37   1.895       .  S
O31          C41   1.263   1_565  A
O32         V517   1.898       .  S
O32          C42   1.265   1_565  A
O33          V38   1.906       .  S
O33          C42   1.266       .  A
O34         V518   1.905       .  S
O34          C41   1.267       .  A
O35          V38   1.897       .  S
O35          C40   1.264       .  A
O36         V518   1.897       .  S
O36          C39   1.264       .  A
V37         O510   1.902   1_554  S
V37         O512   1.898   1_554  S
V37         V518   2.085   1_565  T
V38         O514   1.906       .  S
V38         O516   1.897       .  S
V38         V517   2.085   1_545  T
C39         C278   1.482       .  S
C40         C221   1.482       .  S
C41         C197   1.485       .  S
C42         C245   1.488       .  S
C43         C158   1.565       .  S
C43         C173   1.566   1_455  S
C43         C302   1.567   1_455  S
C43         C326   1.566       .  S
C44         C101   1.561       .  S
C44         C134   1.564   1_455  S
C44         C341   1.570       .  S
C44         C374   1.565       .  S
C45          C86   1.569       .  S
C45         C110   1.566       .  S
C45         C446   1.559       .  S
C45         C470   1.561       .  S
C46          C77   1.573       .  S
C46         C149   1.571   1_545  S
C46         C254   1.568       .  S
C46         C269   1.563       .  S
C47          C53   1.563   1_545  S
C47         C125   1.564       .  S
C47         C206   1.568       .  S
C47         C230   1.566   1_545  S
C48          C62   1.569       .  S
C48         C182   1.567       .  S
C48         C398   1.569       .  S
C48         C413   1.570       .  S
C49          C50   1.401       .  A
C49          C54   1.405       .  A
C49          H59   1.084       .  S
C50          C55   1.486       .  S
C50          C51   1.403       .  A
C51          C52   1.398       .  A
C51          O56   1.373       .  S
C52          C53   1.417       .  A
C52          H57   1.078       .  S
C53          C54   1.423       .  A
C54          O58   1.372       .  S
C55          C60   1.404       .  A
C55          C64   1.398       .  A
O56          H72   0.992       .  S
O58          H69   0.992       .  S
C60          C61   1.399       .  A
C60          O65   1.372       .  S
C61          C62   1.417       .  A
C61          H66   1.082       .  S
C62          C63   1.429       .  A
C63          C64   1.402       .  A
C63          O67   1.370       .  S
C64          H68   1.084       .  S
O65          H70   0.991       .  S
O67          H71   0.990       .  S
C73          C74   1.398       .  A
C73          C78   1.406       .  A
C73          H83   1.084       .  S
C74          C79   1.484       .  S
C74          C75   1.400       .  A
C75          C76   1.399       .  A
C75          O80   1.372       .  S
C76          C77   1.420       .  A
C76          H81   1.083       .  S
C77          C78   1.430       .  A
C78          O82   1.369       .  S
C79          C84   1.401       .  A
C79          C88   1.396       .  A
O80          H96   0.992       .  S
O82          H93   0.991       .  S
C84          C85   1.402       .  A
C84          O89   1.372       .  S
C85          C86   1.419       .  A
C85          H90   1.083       .  S
C86          C87   1.431       .  A
C87          C88   1.404       .  A
C87          O91   1.371       .  S
C88          H92   1.084       .  S
O89          H94   0.992       .  S
O91          H95   0.992       .  S
C97          C98   1.401       .  A
C97         C102   1.409       .  A
C97         H107   1.083       .  S
C98         C103   1.488       .  S
C98          C99   1.405       .  A
C99         C100   1.395       .  A
C99         O104   1.372       .  S
C100        C101   1.414       .  A
C100        H105   1.080       .  S
C101        C102   1.424       .  A
C102        O106   1.374       .  S
C103        C108   1.406       .  A
C103        C112   1.397       .  A
O104        H120   0.991       .  S
O106        H117   0.994       .  S
C108        C109   1.407       .  A
C108        O113   1.371       .  S
C109        C110   1.419       .  A
C109        H114   1.080       .  S
C110        C111   1.424       .  A
C111        C112   1.396       .  A
C111        O115   1.371       .  S
C112        H116   1.084       .  S
O113        H118   0.991       .  S
O115        H119   0.992       .  S
C121        C122   1.397       .  A
C121        C126   1.404       .  A
C121        H131   1.084       .  S
C122        C127   1.476       .  S
C122        C123   1.399       .  A
C123        C124   1.395       .  A
C123        O128   1.372       .  S
C124        C125   1.418       .  A
C124        H129   1.083       .  S
C125        C126   1.428       .  A
C126        O130   1.370       .  S
C127        C132   1.399       .  A
C127        C136   1.397       .  A
O128        H144   0.991       .  S
O130        H141   0.992       .  S
C132        C133   1.398       .  A
C132        O137   1.372       .  S
C133        C134   1.420       .  A
C133        H138   1.083       .  S
C134        C135   1.426       .  A
C135        C136   1.404       .  A
C135        O139   1.372       .  S
C136        H140   1.084       .  S
O137        H142   0.991       .  S
O139        H143   0.993       .  S
C145        C146   1.401       .  A
C145        C150   1.403       .  A
C145        H155   1.084       .  S
C146        C151   1.494       .  S
C146        C147   1.406       .  A
C147        C148   1.402       .  A
C147        O152   1.372       .  S
C148        C149   1.419       .  A
C148        H153   1.079       .  S
C149        C150   1.424       .  A
C150        O154   1.373       .  S
C151        C156   1.406       .  A
C151        C160   1.403       .  A
O152        H168   0.991       .  S
O154        H165   0.992       .  S
C156        C157   1.399       .  A
C156        O161   1.372       .  S
C157        C158   1.416       .  A
C157        H162   1.078       .  S
C158        C159   1.424       .  A
C159        C160   1.406       .  A
C159        O163   1.372       .  S
C160        H164   1.083       .  S
O161        H166   0.991       .  S
O163        H167   0.992       .  S
C169        C170   1.399       .  A
C169        C174   1.407       .  A
C169        H179   1.084       .  S
C170        C175   1.482       .  S
C170        C171   1.401       .  A
C171        C172   1.397       .  A
C171        O176   1.372       .  S
C172        C173   1.418       .  A
C172        H177   1.083       .  S
C173        C174   1.427       .  A
C174        O178   1.371       .  S
C175        C180   1.402       .  A
C175        C184   1.397       .  A
O176        H192   0.992       .  S
O178        H189   0.991       .  S
C180        C181   1.402       .  A
C180        O185   1.371       .  S
C181        C182   1.418       .  A
C181        H186   1.082       .  S
C182        C183   1.429       .  A
C183        C184   1.401       .  A
C183        O187   1.370       .  S
C184        H188   1.084       .  S
O185        H190   0.991       .  S
O187        H191   0.992       .  S
C193        C194   1.400   1_565  A
C193        C198   1.401       .  A
C193        H203   1.084       .  S
C194        C199   1.475       .  S
C194        C195   1.404       .  A
C195        C196   1.400       .  A
C195        O200   1.371       .  S
C196        C197   1.407       .  A
C196        H201   1.083       .  S
C197        C198   1.415   1_545  A
C198        O202   1.372       .  S
C199        C204   1.400       .  A
C199        C208   1.397       .  A
O200        H216   0.992       .  S
O202        H213   0.993       .  S
C204        C205   1.397       .  A
C204        O209   1.372       .  S
C205        C206   1.418       .  A
C205        H210   1.078       .  S
C206        C207   1.424       .  A
C207        C208   1.402       .  A
C207        O211   1.371       .  S
C208        H212   1.084       .  S
O209        H214   0.992   1_545  S
O211        H215   0.992       .  S
C217        C218   1.403   1_565  A
C217        C222   1.400       .  A
C217        H227   1.084       .  S
C218        C223   1.483   1_545  S
C218        C219   1.409       .  A
C219        C220   1.401       .  A
C219        O224   1.373       .  S
C220        C221   1.406       .  A
C220        H225   1.084       .  S
C221        C222   1.411   1_545  A
C222        O226   1.371       .  S
C223        C228   1.404   1_565  A
C223        C232   1.399       .  A
O224        H240   0.992       .  S
O226        H237   0.992       .  S
C228        C229   1.399       .  A
C228        O233   1.372       .  S
C229        C230   1.419   1_545  A
C229        H234   1.080       .  S
C230        C231   1.423       .  A
C231        C232   1.399       .  A
C231        O235   1.371       .  S
C232        H236   1.084       .  S
O233        H238   0.991       .  S
O235        H239   0.992       .  S
C241        C242   1.401       .  A
C241        C246   1.401       .  A
C241        H251   1.084       .  S
C242        C247   1.476   1_545  S
C242        C243   1.404   1_545  A
C243        C244   1.401       .  A
C243        O248   1.371       .  S
C244        C245   1.409   1_565  A
C244        H249   1.083       .  S
C245        C246   1.413       .  A
C246        O250   1.371       .  S
C247        C252   1.401       .  A
C247        C256   1.391       .  A
O248        H264   0.992       .  S
O250        H261   0.991       .  S
C252        C253   1.404       .  A
C252        O257   1.371       .  S
C253        C254   1.419   1_565  A
C253        H258   1.083       .  S
C254        C255   1.433   1_545  A
C255        C256   1.398       .  A
C255        O259   1.373       .  S
C256        H260   1.084       .  S
O257        H262   0.992       .  S
O259        H263   0.994   1_565  S
C265        C266   1.401       .  A
C265        C270   1.401       .  A
C265        H275   1.083       .  S
C266        C271   1.489       .  S
C266        C267   1.407   1_545  A
C267        C268   1.399       .  A
C267        O272   1.372       .  S
C268        C269   1.414   1_565  A
C268        H273   1.079       .  S
C269        C270   1.424       .  A
C270        O274   1.371       .  S
C271        C276   1.410       .  A
C271        C280   1.406   1_545  A
O272        H288   0.992       .  S
O274        H285   0.992       .  S
C276        C277   1.402       .  A
C276        O281   1.372       .  S
C277        C278   1.406       .  A
C277        H282   1.083       .  S
C278        C279   1.410   1_545  A
C279        C280   1.400       .  A
C279        O283   1.372       .  S
C280        H284   1.083       .  S
O281        H286   0.992       .  S
O283        H287   0.992       .  S
C289        C290   1.401   1_455  A
C289        C294   1.402       .  A
C289        H299   1.084       .  S
C290        C295   1.480       .  S
C290        C291   1.405       .  A
C291        C292   1.401       .  A
C291        O296   1.372       .  S
C292        C293   1.408       .  A
C292        H297   1.083       .  S
C293        C294   1.414   1_655  A
C294        O298   1.371       .  S
C295        C300   1.401       .  A
C295        C304   1.399   1_655  A
O296        H312   0.991       .  S
O298        H309   0.992       .  S
C300        C301   1.396       .  A
C300        O305   1.372       .  S
C301        C302   1.418       .  A
C301        H306   1.080       .  S
C302        C303   1.423   1_655  A
C303        C304   1.405       .  A
C303        O307   1.371       .  S
C304        H308   1.084       .  S
O305        H310   0.992   1_655  S
O307        H311   0.992   1_455  S
C313        C314   1.401       .  A
C313        C318   1.401       .  A
C313        H323   1.084       .  S
C314        C319   1.482       .  S
C314        C315   1.408   1_455  A
C315        C316   1.403       .  A
C315        O320   1.372       .  S
C316        C317   1.406       .  A
C316        H321   1.083       .  S
C317        C318   1.412   1_655  A
C318        O322   1.372       .  S
C319        C324   1.403   1_455  A
C319        C328   1.398       .  A
O320        H336   0.991       .  S
O322        H333   0.992       .  S
C324        C325   1.400       .  A
C324        O329   1.371       .  S
C325        C326   1.418   1_655  A
C325        H330   1.080       .  S
C326        C327   1.425       .  A
C327        C328   1.401       .  A
C327        O331   1.373       .  S
C328        H332   1.084       .  S
O329        H334   0.992       .  S
O331        H335   0.992       .  S
C337        C338   1.401       .  A
C337        C342   1.404       .  A
C337        H347   1.083       .  S
C338        C343   1.491       .  S
C338        C339   1.406   1_455  A
C339        C340   1.398       .  A
C339        O344   1.372       .  S
C340        C341   1.417   1_655  A
C340        H345   1.080       .  S
C341        C342   1.423       .  A
C342        O346   1.372       .  S
C343        C348   1.411       .  A
C343        C352   1.405   1_455  A
O344        H360   0.991       .  S
O346        H357   0.993       .  S
C348        C349   1.403       .  A
C348        O353   1.371       .  S
C349        C350   1.405   1_455  A
C349        H354   1.083       .  S
C350        C351   1.411       .  A
C351        C352   1.400       .  A
C351        O355   1.372       .  S
C352        H356   1.083       .  S
O353        H358   0.992       .  S
O355        H359   0.991       .  S
C361        C362   1.408   1_655  A
C361        C366   1.405       .  A
C361        H371   1.083       .  S
C362        C367   1.500       .  S
C362        C363   1.413       .  A
C363        C364   1.401       .  A
C363        O368   1.372       .  S
C364        C365   1.406   1_455  A
C364        H369   1.083       .  S
C365        C366   1.411       .  A
C366        O370   1.371       .  S
C367        C372   1.407   1_455  A
C367        C376   1.404       .  A
O368        H384   0.992       .  S
O370        H381   0.992       .  S
C372        C373   1.400       .  A
C372        O377   1.371       .  S
C373        C374   1.416   1_655  A
C373        H378   1.083       .  S
C374        C375   1.426       .  A
C375        C376   1.408       .  A
C375        O379   1.373       .  S
C376        H380   1.083       .  S
O377        H382   0.992       .  S
O379        H383   0.994       .  S
C385        C386   1.404       .  A
C385        C390   1.403       .  A
C385        H395   1.083       .  S
C386        C391   1.489       .  S
C386        C387   1.411       .  A
C387        C388   1.400       .  A
C387        O392   1.372       .  S
C388        C389   1.404       .  A
C388        H393   1.084       .  S
C389        C390   1.413       .  A
C390        O394   1.372       .  S
C391        C396   1.405       .  A
C391        C400   1.400       .  A
O392        H408   0.992       .  S
O394        H405   0.992       .  S
C396        C397   1.404       .  A
C396        O401   1.372       .  S
C397        C398   1.420       .  A
C397        H402   1.078       .  S
C398        C399   1.423       .  A
C399        C400   1.399       .  A
C399        O403   1.371       .  S
C400        H404   1.084       .  S
O401        H406   0.991       .  S
O403        H407   0.992       .  S
C409        C410   1.401       .  A
C409        C414   1.403       .  A
C409        H419   1.083       .  S
C410        C415   1.495       .  S
C410        C411   1.407       .  A
C411        C412   1.400       .  A
C411        O416   1.372       .  S
C412        C413   1.418       .  A
C412        H417   1.083       .  S
C413        C414   1.430       .  A
C414        O418   1.369       .  S
C415        C420   1.413       .  A
C415        C424   1.406       .  A
O416        H432   0.992       .  S
O418        H429   0.990       .  S
C420        C421   1.402       .  A
C420        O425   1.372       .  S
C421        C422   1.405       .  A
C421        H426   1.083       .  S
C422        C423   1.412       .  A
C423        C424   1.402       .  A
C423        O427   1.371       .  S
C424        H428   1.083       .  S
O425        H430   0.992       .  S
O427        H431   0.992       .  S
C433        C434   1.403       .  A
C433        C438   1.398       .  A
C433        H443   1.083       .  S
C434        C439   1.486       .  S
C434        C435   1.409       .  A
C435        C436   1.402       .  A
C435        O440   1.372       .  S
C436        C437   1.408       .  A
C436        H441   1.083       .  S
C437        C438   1.413       .  A
C438        O442   1.371       .  S
C439        C444   1.406       .  A
C439        C448   1.400       .  A
O440        H456   0.991       .  S
O442        H453   0.992       .  S
C444        C445   1.401       .  A
C444        O449   1.373       .  S
C445        C446   1.415       .  A
C445        H450   1.081       .  S
C446        C447   1.422       .  A
C447        C448   1.401       .  A
C447        O451   1.374       .  S
C448        H452   1.083       .  S
O449        H454   0.992       .  S
O451        H455   0.986       .  S
C457        C458   1.400       .  A
C457        C462   1.400       .  A
C457        H467   1.084       .  S
C458        C463   1.474       .  S
C458        C459   1.403       .  A
C459        C460   1.400       .  A
C459        O464   1.371       .  S
C460        C461   1.409       .  A
C460        H465   1.083       .  S
C461        C462   1.414       .  A
C462        O466   1.371       .  S
C463        C468   1.400       .  A
C463        C472   1.394       .  A
O464        H480   0.993       .  S
O466        H477   0.992       .  S
C468        C469   1.400       .  A
C468        O473   1.371       .  S
C469        C470   1.417       .  A
C469        H474   1.083       .  S
C470        C471   1.430       .  A
C471        C472   1.402       .  A
C471        O475   1.374       .  S
C472        H476   1.084       .  S
O473        H478   0.992       .  S
O475        H479   0.989       .  S
O481        V489   1.901       .  S
O481        C491   1.265       .  A
O482        C492   1.266       .  A
O483        V489   1.906       .  S
O483        C493   1.267       .  A
O484        C494   1.266       .  A
O485        V490   1.896       .  S
O485        C494   1.264       .  A
O486        C493   1.264       .  A
O487        V490   1.904       .  S
O487        C492   1.266       .  A
O488        C491   1.265       .  A
C491        C941   1.487       .  S
C492        C902   1.487       .  S
C493        C869   1.484       .  S
C494        C917   1.487       .  S
O495        V503   1.898       .  S
O495        C505   1.264   1_455  A
O496        C506   1.265   1_455  A
O497        V503   1.906       .  S
O497        C507   1.266   1_455  A
O498        C508   1.265   1_455  A
O499        V504   1.901       .  S
O499        C508   1.266       .  A
O500        C507   1.264       .  A
O501        V504   1.911       .  S
O501        C506   1.267       .  A
O502        C505   1.266       .  A
C505        C797   1.484       .  S
C506        C845   1.491       .  S
C507        C830   1.483       .  S
C508        C773   1.488       .  S
O509        V517   1.901       .  S
O509        C519   1.265   1_565  A
O510        C520   1.266   1_565  A
O511        V517   1.894       .  S
O511        C521   1.263   1_565  A
O512        C522   1.265   1_565  A
O513        V518   1.905   1_556  S
O513        C522   1.266       .  A
O514        C521   1.267       .  A
O515        V518   1.897   1_556  S
O515        C520   1.264       .  A
O516        C519   1.264       .  A
C519        C758   1.483       .  S
C520        C701   1.482       .  S
C521        C677   1.484       .  S
C522        C725   1.488       .  S
C523        C638   1.565       .  S
C523        C653   1.566   1_455  S
C523        C782   1.567   1_455  S
C523        C806   1.566       .  S
C524        C581   1.561       .  S
C524        C614   1.564   1_455  S
C524        C821   1.569       .  S
C524        C854   1.565       .  S
C525        C566   1.569       .  S
C525        C590   1.566       .  S
C525        C926   1.559       .  S
C525        C950   1.561       .  S
C526        C557   1.573       .  S
C526        C629   1.571   1_545  S
C526        C734   1.568       .  S
C526        C749   1.563       .  S
C527        C533   1.563   1_545  S
C527        C605   1.564       .  S
C527        C686   1.569       .  S
C527        C710   1.566   1_545  S
C528        C542   1.569       .  S
C528        C662   1.568       .  S
C528        C878   1.569       .  S
C528        C893   1.570       .  S
C529        C530   1.401       .  A
C529        C534   1.404       .  A
C529        H539   1.084       .  S
C530        C535   1.486       .  S
C530        C531   1.403       .  A
C531        C532   1.398       .  A
C531        O536   1.373       .  S
C532        C533   1.417       .  A
C532        H537   1.078       .  S
C533        C534   1.423       .  A
C534        O538   1.372       .  S
C535        C540   1.404       .  A
C535        C544   1.398       .  A
O536        H552   0.992       .  S
O538        H549   0.992       .  S
C540        C541   1.399       .  A
C540        O545   1.372       .  S
C541        C542   1.417       .  A
C541        H546   1.082       .  S
C542        C543   1.429       .  A
C543        C544   1.402       .  A
C543        O547   1.370       .  S
C544        H548   1.084       .  S
O545        H550   0.991       .  S
O547        H551   0.990       .  S
C553        C554   1.398       .  A
C553        C558   1.406       .  A
C553        H563   1.084       .  S
C554        C559   1.484       .  S
C554        C555   1.400       .  A
C555        C556   1.399       .  A
C555        O560   1.372       .  S
C556        C557   1.420       .  A
C556        H561   1.083       .  S
C557        C558   1.430       .  A
C558        O562   1.369       .  S
C559        C564   1.401       .  A
C559        C568   1.396       .  A
O560        H576   0.992       .  S
O562        H573   0.991       .  S
C564        C565   1.402       .  A
C564        O569   1.372       .  S
C565        C566   1.419       .  A
C565        H570   1.083       .  S
C566        C567   1.431       .  A
C567        C568   1.404       .  A
C567        O571   1.371       .  S
C568        H572   1.084       .  S
O569        H574   0.992       .  S
O571        H575   0.992       .  S
C577        C578   1.401       .  A
C577        C582   1.409       .  A
C577        H587   1.083       .  S
C578        C583   1.488       .  S
C578        C579   1.405       .  A
C579        C580   1.395       .  A
C579        O584   1.372       .  S
C580        C581   1.414       .  A
C580        H585   1.080       .  S
C581        C582   1.424       .  A
C582        O586   1.374       .  S
C583        C588   1.406       .  A
C583        C592   1.397       .  A
O584        H600   0.991       .  S
O586        H597   0.994       .  S
C588        C589   1.407       .  A
C588        O593   1.371       .  S
C589        C590   1.419       .  A
C589        H594   1.080       .  S
C590        C591   1.424       .  A
C591        C592   1.396       .  A
C591        O595   1.371       .  S
C592        H596   1.084       .  S
O593        H598   0.991       .  S
O595        H599   0.992       .  S
C601        C602   1.397       .  A
C601        C606   1.404       .  A
C601        H611   1.084       .  S
C602        C607   1.476       .  S
C602        C603   1.399       .  A
C603        C604   1.396       .  A
C603        O608   1.372       .  S
C604        C605   1.418       .  A
C604        H609   1.083       .  S
C605        C606   1.428       .  A
C606        O610   1.370       .  S
C607        C612   1.399       .  A
C607        C616   1.397       .  A
O608        H624   0.991       .  S
O610        H621   0.992       .  S
C612        C613   1.398       .  A
C612        O617   1.372       .  S
C613        C614   1.420       .  A
C613        H618   1.083       .  S
C614        C615   1.426       .  A
C615        C616   1.404       .  A
C615        O619   1.372       .  S
C616        H620   1.084       .  S
O617        H622   0.991       .  S
O619        H623   0.993       .  S
C625        C626   1.401       .  A
C625        C630   1.403       .  A
C625        H635   1.084       .  S
C626        C631   1.494       .  S
C626        C627   1.406       .  A
C627        C628   1.402       .  A
C627        O632   1.372       .  S
C628        C629   1.419       .  A
C628        H633   1.079       .  S
C629        C630   1.424       .  A
C630        O634   1.373       .  S
C631        C636   1.406       .  A
C631        C640   1.403       .  A
O632        H648   0.991       .  S
O634        H645   0.992       .  S
C636        C637   1.399       .  A
C636        O641   1.372       .  S
C637        C638   1.416       .  A
C637        H642   1.078       .  S
C638        C639   1.424       .  A
C639        C640   1.406       .  A
C639        O643   1.372       .  S
C640        H644   1.083       .  S
O641        H646   0.991       .  S
O643        H647   0.992       .  S
C649        C650   1.399       .  A
C649        C654   1.407       .  A
C649        H659   1.084       .  S
C650        C655   1.482       .  S
C650        C651   1.401       .  A
C651        C652   1.397       .  A
C651        O656   1.372       .  S
C652        C653   1.418       .  A
C652        H657   1.083       .  S
C653        C654   1.427       .  A
C654        O658   1.371       .  S
C655        C660   1.402       .  A
C655        C664   1.397       .  A
O656        H672   0.992       .  S
O658        H669   0.991       .  S
C660        C661   1.402       .  A
C660        O665   1.371       .  S
C661        C662   1.418       .  A
C661        H666   1.082       .  S
C662        C663   1.429       .  A
C663        C664   1.401       .  A
C663        O667   1.370       .  S
C664        H668   1.084       .  S
O665        H670   0.991       .  S
O667        H671   0.992       .  S
C673        C674   1.400   1_565  A
C673        C678   1.400       .  A
C673        H683   1.084       .  S
C674        C679   1.476       .  S
C674        C675   1.404       .  A
C675        C676   1.400       .  A
C675        O680   1.371       .  S
C676        C677   1.406       .  A
C676        H681   1.083       .  S
C677        C678   1.415   1_545  A
C678        O682   1.372       .  S
C679        C684   1.400       .  A
C679        C688   1.397       .  A
O680        H696   0.992       .  S
O682        H693   0.993       .  S
C684        C685   1.398       .  A
C684        O689   1.372       .  S
C685        C686   1.418       .  A
C685        H690   1.078       .  S
C686        C687   1.424       .  A
C687        C688   1.402       .  A
C687        O691   1.371       .  S
C688        H692   1.084       .  S
O689        H694   0.992   1_545  S
O691        H695   0.992       .  S
C697        C698   1.403       .  A
C697        C702   1.400       .  A
C697        H707   1.084       .  S
C698        C703   1.483       .  S
C698        C699   1.409   1_565  A
C699        C700   1.401       .  A
C699        O704   1.373       .  S
C700        C701   1.405       .  A
C700        H705   1.084       .  S
C701        C702   1.411   1_545  A
C702        O706   1.371       .  S
C703        C708   1.404   1_565  A
C703        C712   1.399       .  A
O704        H720   0.992       .  S
O706        H717   0.992       .  S
C708        C709   1.399       .  A
C708        O713   1.372       .  S
C709        C710   1.418   1_545  A
C709        H714   1.080       .  S
C710        C711   1.423       .  A
C711        C712   1.399       .  A
C711        O715   1.371       .  S
C712        H716   1.084       .  S
O713        H718   0.991       .  S
O715        H719   0.992       .  S
C721        C722   1.401   1_545  A
C721        C726   1.401       .  A
C721        H731   1.084       .  S
C722        C727   1.475       .  S
C722        C723   1.404       .  A
C723        C724   1.400       .  A
C723        O728   1.372       .  S
C724        C725   1.409   1_565  A
C724        H729   1.083       .  S
C725        C726   1.414       .  A
C726        O730   1.371       .  S
C727        C732   1.401       .  A
C727        C736   1.391       .  A
O728        H744   0.992       .  S
O730        H741   0.992       .  S
C732        C733   1.404       .  A
C732        O737   1.371       .  S
C733        C734   1.419   1_565  A
C733        H738   1.083       .  S
C734        C735   1.434   1_545  A
C735        C736   1.398       .  A
C735        O739   1.373       .  S
C736        H740   1.084       .  S
O737        H742   0.992       .  S
O739        H743   0.994   1_565  S
C745        C746   1.401       .  A
C745        C750   1.401       .  A
C745        H755   1.083       .  S
C746        C751   1.489       .  S
C746        C747   1.408   1_545  A
C747        C748   1.399       .  A
C747        O752   1.372       .  S
C748        C749   1.414   1_565  A
C748        H753   1.079       .  S
C749        C750   1.424       .  A
C750        O754   1.371       .  S
C751        C756   1.410       .  A
C751        C760   1.406   1_545  A
O752        H768   0.992       .  S
O754        H765   0.992       .  S
C756        C757   1.402       .  A
C756        O761   1.372       .  S
C757        C758   1.406       .  A
C757        H762   1.083       .  S
C758        C759   1.410   1_545  A
C759        C760   1.400       .  A
C759        O763   1.372       .  S
C760        H764   1.083       .  S
O761        H766   0.992       .  S
O763        H767   0.992       .  S
C769        C770   1.401   1_455  A
C769        C774   1.402       .  A
C769        H779   1.084       .  S
C770        C775   1.480       .  S
C770        C771   1.405       .  A
C771        C772   1.401       .  A
C771        O776   1.372       .  S
C772        C773   1.408       .  A
C772        H777   1.083       .  S
C773        C774   1.414   1_655  A
C774        O778   1.371       .  S
C775        C780   1.401       .  A
C775        C784   1.399   1_655  A
O776        H792   0.991       .  S
O778        H789   0.992       .  S
C780        C781   1.396       .  A
C780        O785   1.372       .  S
C781        C782   1.418       .  A
C781        H786   1.080       .  S
C782        C783   1.423   1_655  A
C783        C784   1.405       .  A
C783        O787   1.371       .  S
C784        H788   1.084       .  S
O785        H790   0.992   1_655  S
O787        H791   0.992   1_455  S
C793        C794   1.401       .  A
C793        C798   1.401       .  A
C793        H803   1.084       .  S
C794        C799   1.482       .  S
C794        C795   1.408   1_455  A
C795        C796   1.403       .  A
C795        O800   1.372       .  S
C796        C797   1.406       .  A
C796        H801   1.083       .  S
C797        C798   1.413   1_655  A
C798        O802   1.372       .  S
C799        C804   1.403   1_455  A
C799        C808   1.398       .  A
O800        H816   0.991       .  S
O802        H813   0.992       .  S
C804        C805   1.400       .  A
C804        O809   1.372       .  S
C805        C806   1.418   1_655  A
C805        H810   1.080       .  S
C806        C807   1.425       .  A
C807        C808   1.401       .  A
C807        O811   1.373       .  S
C808        H812   1.084       .  S
O809        H814   0.992       .  S
O811        H815   0.992       .  S
C817        C818   1.401       .  A
C817        C822   1.404       .  A
C817        H827   1.083       .  S
C818        C823   1.491       .  S
C818        C819   1.406   1_455  A
C819        C820   1.398       .  A
C819        O824   1.372       .  S
C820        C821   1.417   1_655  A
C820        H825   1.080       .  S
C821        C822   1.423       .  A
C822        O826   1.372       .  S
C823        C828   1.411       .  A
C823        C832   1.405   1_455  A
O824        H840   0.991       .  S
O826        H837   0.993       .  S
C828        C829   1.403       .  A
C828        O833   1.371       .  S
C829        C830   1.405   1_455  A
C829        H834   1.083       .  S
C830        C831   1.411       .  A
C831        C832   1.400       .  A
C831        O835   1.372       .  S
C832        H836   1.083       .  S
O833        H838   0.992       .  S
O835        H839   0.991       .  S
C841        C842   1.408   1_655  A
C841        C846   1.405       .  A
C841        H851   1.083       .  S
C842        C847   1.500       .  S
C842        C843   1.413       .  A
C843        C844   1.402       .  A
C843        O848   1.372       .  S
C844        C845   1.406   1_455  A
C844        H849   1.083       .  S
C845        C846   1.411       .  A
C846        O850   1.371       .  S
C847        C852   1.407   1_455  A
C847        C856   1.404       .  A
O848        H864   0.992       .  S
O850        H861   0.992       .  S
C852        C853   1.400       .  A
C852        O857   1.371       .  S
C853        C854   1.416   1_655  A
C853        H858   1.083       .  S
C854        C855   1.426       .  A
C855        C856   1.408       .  A
C855        O859   1.373       .  S
C856        H860   1.083       .  S
O857        H862   0.992       .  S
O859        H863   0.994       .  S
C865        C866   1.404       .  A
C865        C870   1.403       .  A
C865        H875   1.083       .  S
C866        C871   1.489       .  S
C866        C867   1.411       .  A
C867        C868   1.400       .  A
C867        O872   1.372       .  S
C868        C869   1.404       .  A
C868        H873   1.084       .  S
C869        C870   1.413       .  A
C870        O874   1.372       .  S
C871        C876   1.405       .  A
C871        C880   1.400       .  A
O872        H888   0.992       .  S
O874        H885   0.992       .  S
C876        C877   1.404       .  A
C876        O881   1.372       .  S
C877        C878   1.420       .  A
C877        H882   1.078       .  S
C878        C879   1.423       .  A
C879        C880   1.400       .  A
C879        O883   1.371       .  S
C880        H884   1.084       .  S
O881        H886   0.991       .  S
O883        H887   0.992       .  S
C889        C890   1.401       .  A
C889        C894   1.403       .  A
C889        H899   1.083       .  S
C890        C895   1.495       .  S
C890        C891   1.406       .  A
C891        C892   1.400       .  A
C891        O896   1.372       .  S
C892        C893   1.418       .  A
C892        H897   1.083       .  S
C893        C894   1.430       .  A
C894        O898   1.369       .  S
C895        C900   1.413       .  A
C895        C904   1.406       .  A
O896        H912   0.992       .  S
O898        H909   0.990       .  S
C900        C901   1.402       .  A
C900        O905   1.372       .  S
C901        C902   1.405       .  A
C901        H906   1.083       .  S
C902        C903   1.412       .  A
C903        C904   1.402       .  A
C903        O907   1.371       .  S
C904        H908   1.083       .  S
O905        H910   0.992       .  S
O907        H911   0.992       .  S
C913        C914   1.403       .  A
C913        C918   1.398       .  A
C913        H923   1.083       .  S
C914        C919   1.486       .  S
C914        C915   1.410       .  A
C915        C916   1.402       .  A
C915        O920   1.372       .  S
C916        C917   1.408       .  A
C916        H921   1.083       .  S
C917        C918   1.413       .  A
C918        O922   1.371       .  S
C919        C924   1.406       .  A
C919        C928   1.400       .  A
O920        H936   0.991       .  S
O922        H933   0.992       .  S
C924        C925   1.401       .  A
C924        O929   1.373       .  S
C925        C926   1.415       .  A
C925        H930   1.081       .  S
C926        C927   1.422       .  A
C927        C928   1.401       .  A
C927        O931   1.374       .  S
C928        H932   1.083       .  S
O929        H934   0.992       .  S
O931        H935   0.986       .  S
C937        C938   1.400       .  A
C937        C942   1.400       .  A
C937        H947   1.084       .  S
C938        C943   1.474       .  S
C938        C939   1.403       .  A
C939        C940   1.400       .  A
C939        O944   1.371       .  S
C940        C941   1.409       .  A
C940        H945   1.083       .  S
C941        C942   1.414       .  A
C942        O946   1.371       .  S
C943        C948   1.400       .  A
C943        C952   1.394       .  A
O944        H960   0.993       .  S
O946        H957   0.992       .  S
C948        C949   1.400       .  A
C948        O953   1.371       .  S
C949        C950   1.417       .  A
C949        H954   1.083       .  S
C950        C951   1.430       .  A
C951        C952   1.402       .  A
C951        O955   1.374       .  S
C952        H956   1.084       .  S
O953        H958   0.992       .  S
O955        H959   0.989       .  S
