geometry optimzed in LAMMPS
_audit_creation_date              2020-11-30 
_audit_creation_method            'lammps2cif' 
_symmetry_space_group_name_H-M    'P1' 
_symmetry_Int_Tables_number       1 
_symmetry_cell_setting            triclinic 
loop_ 
_symmetry_equiv_pos_as_xyz 
  x,y,z 
_cell_length_a                    50.65565452 
_cell_length_b                    50.828957270413945 
_cell_length_c                    50.7079802783278 
_cell_angle_alpha                 89.92979894818593 
_cell_angle_beta                  89.96973580875203 
_cell_angle_gamma                 89.95230566204204 
loop_ 
_atom_site_label 
_atom_site_type_symbol 
_atom_site_fract_x 
_atom_site_fract_y 
_atom_site_fract_z 
_atom_site_charge 
O1          O  0.29506602  0.75166234  0.48234300    -0.78200
C2          C  0.30421218  0.70233962  0.55180092     0.82800
O3          O  0.27283095  0.65500929  0.47356030    -0.79300
O4          O  0.21737398  0.68986812  0.55063612    -0.80800
O5          O  0.21285103  0.76089653  0.50716230    -0.80600
O6          O  0.25743973  0.76104692  0.46143383    -0.79200
Zn7        Zn  0.28845671  0.71482760  0.49526956     1.55700
O8          O  0.23336042  0.75328298  0.54544992    -0.80600
Cd9        Cd  0.23151826  0.73622221  0.48094448     1.59700
Cd10       Cd  0.24074233  0.67402543  0.49116682     1.59600
O11         O  0.20415795  0.71877102  0.45547728    -0.80600
O12         O  0.25185818  0.70985590  0.50121510    -1.91100
Cd13       Cd  0.24659414  0.71519529  0.53918185     1.59900
O14         O  0.21212093  0.67618921  0.46218499    -0.80600
O15         O  0.28067245  0.70535098  0.56031641    -0.79200
C16         C  0.29337674  0.66543491  0.46315050     0.83300
C17         C  0.28130661  0.76647265  0.46737297     0.83000
O18         O  0.30974308  0.70637407  0.52764479    -0.78200
C19         C  0.21808480  0.76714471  0.53095524     0.83800
O20         O  0.30010823  0.68903632  0.46822930    -0.78300
C21         C  0.19948553  0.69454831  0.45058792     0.83900
C22         C  0.21124256  0.66664930  0.54343677     0.84200
O23         O  0.22151220  0.65588858  0.52301833    -0.80700
O24         O  0.81032388  0.70566375  0.97273800    -0.78200
C25         C  0.78336693  0.76889134  0.03064720     0.82800
O26         O  0.77350087  0.65711209  0.02750144    -0.79300
O27         O  0.70651201  0.72103270  0.04470626    -0.80800
O28         O  0.73371936  0.75599330  0.95435593    -0.80600
O29         O  0.78199404  0.70995899  0.93959746    -0.79200
Zn30       Zn  0.78950756  0.71620289  0.00471763     1.55700
O31         O  0.71451578  0.76438963  0.99306749    -0.80600
Cd32       Cd  0.74788442  0.71838484  0.96058758     1.59700
Cd33       Cd  0.74192038  0.67593705  0.00778701     1.59600
O34         O  0.72030918  0.69219092  0.94769723    -0.80600
O35         O  0.75296767  0.71207606  0.99838755    -1.91100
Cd36       Cd  0.73324858  0.73879017  0.01873888     1.59900
O37         O  0.72376482  0.65785173  0.97505482    -0.80600
O38         O  0.75963846  0.76356447  0.03718904    -0.79200
C39         C  0.79372724  0.66783255  0.03832831     0.83300
C40         C  0.80478479  0.70385404  0.94833251     0.83000
O41         O  0.79684243  0.75342821  0.01607009    -0.78200
C42         C  0.71916802  0.77035320  0.96904852     0.83800
O43         O  0.80039353  0.69136135  0.03290874    -0.78300
C44         C  0.71444007  0.66868449  0.95417368     0.83900
C45         C  0.70031307  0.69682261  0.04772397     0.84200
O46         O  0.71187669  0.67849309  0.03504887    -0.80700
O47         O  0.19849856  0.53421019  0.18937907    -0.78200
C48         C  0.25945669  0.47396664  0.21725563     0.82800
O49         O  0.14941485  0.47999863  0.22567008    -0.79300
O50         O  0.21169542  0.46285180  0.29435519    -0.80800
O51         O  0.24762043  0.55232006  0.26718613    -0.80600
O52         O  0.20250504  0.56742478  0.21755549    -0.79200
Zn53       Zn  0.20851473  0.50233330  0.21058873     1.55700
O54         O  0.25681155  0.51326215  0.28518304    -0.80600
Cd55       Cd  0.21014693  0.54633136  0.25208583     1.59700
Cd56       Cd  0.16770415  0.49915672  0.25719868     1.59600
O57         O  0.18312204  0.55843639  0.27946422    -0.80600
O58         O  0.20407516  0.50858879  0.24700074    -1.91100
Cd59       Cd  0.23025878  0.48786487  0.26719890     1.59900
O60         O  0.14860600  0.53167525  0.27368977    -0.80600
O61         O  0.25363516  0.46747482  0.24086879    -0.79200
C62         C  0.16030981  0.46918910  0.20561379     0.83300
C63         C  0.19683336  0.55861653  0.19469226     0.83000
O64         O  0.24532799  0.48996367  0.20395587    -0.78200
C65         C  0.26240098  0.53744835  0.28118128     0.83800
O66         O  0.18399000  0.47435217  0.19917846    -0.78300
C67         C  0.15928897  0.55191200  0.28421222     0.83900
C68         C  0.18723106  0.45962123  0.29975332     0.84200
O69         O  0.16917994  0.47197960  0.28737162    -0.80700
O70         O  0.52956144  0.19823930  0.19740042    -0.78200
C71         C  0.46940352  0.22458721  0.25822780     0.82800
O72         O  0.47554859  0.23614937  0.14677821    -0.79300
O73         O  0.45746732  0.30259141  0.21200928    -0.80800
O74         O  0.54739791  0.27474695  0.24713507    -0.80600
O75         O  0.56268665  0.22660010  0.19996285    -0.79200
Zn76       Zn  0.49731847  0.21931916  0.20640216     1.55700
O77         O  0.50844902  0.29358195  0.25547808    -0.80600
Cd78       Cd  0.54158678  0.26078465  0.20910455     1.59700
Cd79       Cd  0.49408594  0.26745276  0.16664373     1.59600
O80         O  0.55414777  0.28927414  0.18354035    -0.80600
O81         O  0.50364163  0.25586452  0.20272740    -1.91100
Cd82       Cd  0.48301553  0.27532279  0.22955994     1.59900
O83         O  0.52658117  0.28675246  0.14925637    -0.80600
O84         O  0.46375230  0.24865427  0.25369429    -0.79200
C85         C  0.46482109  0.21570960  0.15705638     0.83300
C86         C  0.55399921  0.20355540  0.19500612     0.83000
O87         O  0.48422824  0.21141532  0.24278416    -0.78200
C88         C  0.53248875  0.28914119  0.26150696     0.83800
O89         O  0.47006469  0.20862278  0.18055533    -0.78300
C90         C  0.54729417  0.29612913  0.16036410     0.83900
C91         C  0.45304944  0.30786368  0.18773468     0.84200
O92         O  0.46520629  0.29603563  0.16919996    -0.80700
O93         O  0.31110145  0.20483971  0.47042031    -0.78200
C94         C  0.28556545  0.26713083  0.52999633     0.82800
O95         O  0.27270832  0.15738566  0.52427089    -0.79300
O96         O  0.20662839  0.22127874  0.54100893    -0.80800
O97         O  0.23551088  0.25815742  0.45259025    -0.80600
O98         O  0.28335250  0.21104573  0.43705581    -0.79200
Zn99       Zn  0.29029838  0.21596337  0.50213247     1.55700
O100        O  0.21719136  0.26581920  0.49192430    -0.80600
Cd101      Cd  0.24896570  0.21993899  0.45768489     1.59700
Cd102      Cd  0.24240953  0.17684800  0.50400757     1.59600
O103        O  0.22100420  0.19407353  0.44404623    -0.80600
O104        O  0.25385708  0.21282104  0.49538701    -1.91100
Cd105      Cd  0.23480792  0.23902295  0.51675704     1.59900
O106        O  0.22646699  0.15916122  0.47034907    -0.80600
O107        O  0.26200843  0.26159714  0.53705409    -0.79200
C108        C  0.29252749  0.16778065  0.53595476     0.83300
C109        C  0.30577109  0.20373934  0.44592424     0.83000
O110        O  0.29838165  0.25277539  0.51382196    -0.78200
C111        C  0.22145344  0.27230391  0.46798578     0.83800
O112        O  0.29991021  0.19114553  0.53074628    -0.78300
C113        C  0.21647182  0.17006807  0.44985453     0.83900
C114        C  0.20029049  0.19708022  0.54366619     0.84200
O115        O  0.21187803  0.17892209  0.53077606    -0.80700
O116        O  0.74966434  0.52613554  0.20581317    -0.78200
C117        C  0.69898875  0.45858441  0.19519092     0.82800
O118        O  0.65308462  0.53771934  0.22825143    -0.79300
O119        O  0.68570287  0.45767458  0.28137975    -0.80800
O120        O  0.75809404  0.50001456  0.28829118    -0.80600
O121        O  0.75993799  0.54591890  0.24378628    -0.79200
Zn122      Zn  0.71219018  0.51461483  0.21192998     1.55700
O123        O  0.75005338  0.46218838  0.26737045    -0.80600
Cd124      Cd  0.73412818  0.52690887  0.26942880     1.59700
Cd125      Cd  0.67143407  0.51758850  0.25914597     1.59600
O126        O  0.71636754  0.55162593  0.29744152    -0.80600
O127        O  0.70748458  0.50760020  0.24839890    -1.91100
Cd128      Cd  0.71229683  0.46954626  0.25318663     1.59900
O129        O  0.67370684  0.54420158  0.28967194    -0.80600
O130        O  0.70290441  0.44960689  0.21840497    -0.79200
C131        C  0.66368051  0.54866738  0.20811330     0.83300
C132        C  0.76516594  0.54010476  0.21982301     0.83000
O133        O  0.70256161  0.48287532  0.19002414    -0.78200
C134        C  0.76390263  0.47614812  0.28309684     0.83800
O135        O  0.68722180  0.54320832  0.20106625    -0.78300
C136        C  0.69196170  0.55560141  0.30260301     0.83900
C137        C  0.66197143  0.46469162  0.28595971     0.84200
O138        O  0.65178929  0.48518967  0.27534814    -0.80700
O139        O  0.01848636  0.30290720  0.25533101    -0.78200
C140        C  0.95082053  0.30853736  0.30627616     0.82800
O141        O  0.03143815  0.27736765  0.35124701    -0.79300
O142        O  0.95263670  0.22359189  0.31560018    -0.80800
O143        O  0.99662795  0.22150224  0.24244514    -0.80600
O144        O  0.04134124  0.26666375  0.24522332    -0.79200
Zn145      Zn  0.00759417  0.29482565  0.29276598     1.55700
O146        O  0.95761604  0.23937854  0.25223354    -0.80600
Cd147      Cd  0.02244351  0.23922097  0.26878449     1.59700
Cd148      Cd  0.01168814  0.24655464  0.33191025     1.59600
O149        O  0.04771996  0.21127878  0.28599482    -0.80600
O150        O  0.00201275  0.25818948  0.29604538    -1.91100
Cd151      Cd  0.96418977  0.25246699  0.29017964     1.59900
O152        O  0.03804514  0.21569832  0.32874002    -0.80600
O153        O  0.94239710  0.28572151  0.30011993    -0.79200
C154        C  0.04130667  0.29843766  0.34143160     0.83300
C155        C  0.03383622  0.29010884  0.24002607     0.83000
O156        O  0.97509593  0.31455388  0.30393903    -0.78200
C157        C  0.97233981  0.22565277  0.23711030     0.83800
O158        O  0.03555374  0.30595097  0.31813529    -0.78300
C159        C  0.05037796  0.20420025  0.31009172     0.83900
C160        C  0.95874020  0.21913107  0.33954065     0.84200
O161        O  0.97867285  0.23004676  0.35055693    -0.80700
O162        O  0.80151670  0.03454872  0.30862821    -0.78200
C163        C  0.73880983  0.97565690  0.28170345     0.82800
O164        O  0.85114894  0.97929229  0.26950882    -0.79300
O165        O  0.78691643  0.96192850  0.20377463    -0.80800
O166        O  0.75305370  0.05248011  0.23238504    -0.80600
O167        O  0.80132319  0.06731465  0.27971941    -0.79200
Zn168      Zn  0.79189632  0.00227354  0.28750996     1.55700
O169        O  0.74401006  0.01391739  0.21318221    -0.80600
Cd170      Cd  0.79111567  0.04632609  0.24559296     1.59700
Cd171      Cd  0.83202926  0.99898046  0.23880890     1.59600
O172        O  0.81634889  0.05836275  0.21632818    -0.80600
O173        O  0.79615065  0.00836926  0.25080636    -1.91100
Cd174      Cd  0.76930094  0.98766861  0.23135093     1.59900
O175        O  0.85089511  0.03168857  0.22211879    -0.80600
O176        O  0.74397589  0.96934206  0.25786859    -0.79200
C177        C  0.84108502  0.96904725  0.29029361     0.83300
C178        C  0.80520760  0.05872972  0.30309831     0.83000
O179        O  0.75460578  0.98995636  0.29509798    -0.78200
C180        C  0.73840403  0.03794909  0.21794905     0.83800
O181        O  0.81780549  0.97477714  0.29793807    -0.78300
C182        C  0.84016731  0.05190925  0.21149682     0.83900
C183        C  0.81112048  0.95954293  0.19680071     0.84200
O184        O  0.82944829  0.97242078  0.20814659    -0.80700
O185        O  0.70250419  0.76481035  0.47910760    -0.78200
C186        C  0.69449918  0.81371880  0.54704989     0.82800
O187        O  0.72644116  0.86109111  0.47001756    -0.79300
O188        O  0.77944433  0.82508050  0.54849959    -0.80800
O189        O  0.78555348  0.75303531  0.50284184    -0.80600
O190        O  0.73992701  0.75333809  0.45910458    -0.79200
Zn191      Zn  0.71022601  0.80170827  0.49080071     1.55700
O192        O  0.76557499  0.76118119  0.54121575    -0.80600
Cd193      Cd  0.76651756  0.77859255  0.47711592     1.59700
Cd194      Cd  0.75769053  0.84150938  0.48882596     1.59600
O195        O  0.79311432  0.79708913  0.45121026    -0.80600
O196        O  0.74671549  0.80526542  0.49756627    -1.91100
Cd197      Cd  0.75164239  0.79897659  0.53536519     1.59900
O198        O  0.78798116  0.83947006  0.46184321    -0.80600
O199        O  0.71720284  0.80750567  0.55599641    -0.79200
C200        C  0.70616836  0.85091884  0.45890763     0.83300
C201        C  0.71593086  0.74865389  0.46528072     0.83000
O202        O  0.68921399  0.81203616  0.52259546    -0.78200
C203        C  0.78039950  0.74686180  0.52672611     0.83800
O204        O  0.69956670  0.82712760  0.46315162    -0.78300
C205        C  0.79946190  0.82136970  0.44876924     0.83900
C206        C  0.78456690  0.84885210  0.54230102     0.84200
O207        O  0.77460054  0.85965160  0.52176827    -0.80700
C208        C  0.92184938  0.84665332  0.34890877     0.86800
C209        C  0.93937590  0.86178686  0.36881934    -0.53500
C210        C  0.92589540  0.88033085  0.38310779     0.09700
C211        C  0.89621689  0.88167957  0.37661335     0.20600
C212        C  0.89982859  0.83505873  0.36619034    -0.54200
C213        C  0.88595863  0.85322285  0.38050640     0.09800
C214        C  0.90856806  0.86816263  0.33249145    -0.53700
C215        C  0.89533549  0.88649818  0.34672445     0.10400
H216        H  0.96039612  0.85875624  0.37135573     0.14900
H217        H  0.88551053  0.89700384  0.38789862     0.00600
H218        H  0.89587691  0.81410064  0.36723508     0.15200
H219        H  0.90964043  0.86881639  0.31108439     0.15000
C220        C  0.83994231  0.15874891  0.42162076     0.86800
C221        C  0.82733576  0.14237016  0.39946938    -0.53500
C222        C  0.84490168  0.12788544  0.38516534     0.09700
C223        C  0.87369126  0.13047605  0.39470260     0.20600
C224        C  0.85496799  0.13810028  0.43836273    -0.54200
C225        C  0.87291410  0.12339310  0.42434069     0.09800
C226        C  0.86181048  0.17470319  0.40831833    -0.53700
C227        C  0.87956996  0.16011684  0.39458457     0.10400
H228        H  0.80625830  0.14200722  0.39556784     0.14900
H229        H  0.88810912  0.11900578  0.38292223     0.00600
H230        H  0.85197052  0.13509426  0.45928441     0.15200
H231        H  0.86325366  0.19598397  0.40988000     0.15000
C232        C  0.84670560  0.93187259  0.65803629     0.86800
C233        C  0.86312822  0.90926332  0.67023810    -0.53500
C234        C  0.87889757  0.89594070  0.65271082     0.09700
C235        C  0.87637959  0.90675053  0.62421662     0.20600
C236        C  0.86729323  0.94938190  0.64425560    -0.54200
C237        C  0.88273299  0.93641320  0.62632749     0.09800
C238        C  0.83142179  0.91873513  0.63563396    -0.53700
C239        C  0.84670304  0.90577656  0.61798240     0.10400
H240        H  0.86225841  0.90371759  0.69075090     0.14900
H241        H  0.88838555  0.89664983  0.60910250     0.00600
H242        H  0.86910641  0.97032258  0.64805007     0.15200
H243        H  0.81002525  0.91932762  0.63402500     0.15000
C244        C  0.15212594  0.08261066  0.33662803     0.86800
C245        C  0.13248068  0.06652731  0.35342804    -0.53500
C246        C  0.11828176  0.08138141  0.37091077     0.09700
C247        C  0.12488041  0.11099187  0.36984872     0.20600
C248        C  0.13475161  0.10366028  0.32342222    -0.54200
C249        C  0.12068635  0.11893028  0.34066057     0.09800
C250        C  0.16887218  0.09739612  0.35691111    -0.53700
C251        C  0.15481983  0.11213178  0.37420428     0.10400
H252        H  0.13006401  0.04541199  0.35242021     0.14900
H253        H  0.11374066  0.12307041  0.38428730     0.00600
H254        H  0.13339496  0.10570985  0.30216954     0.15200
H255        H  0.19029047  0.09616234  0.35764361     0.15000
C256        C  0.08242488  0.17070594  0.64974125     0.86800
C257        C  0.10362650  0.18332653  0.63202823    -0.53500
C258        C  0.11679239  0.16590040  0.61616772     0.09700
C259        C  0.10776358  0.13700948  0.62026996     0.20600
C260        C  0.06459899  0.15545424  0.63039481    -0.54200
C261        C  0.07768641  0.13739663  0.61515132     0.09800
C262        C  0.09724678  0.14949231  0.66515999    -0.53700
C263        C  0.11010818  0.13157506  0.65009919     0.10400
H264        H  0.10825567  0.20403830  0.63206133     0.14900
H265        H  0.11848450  0.12256957  0.60794087     0.00600
H266        H  0.04330926  0.15769188  0.63020096     0.15200
H267        H  0.09675800  0.14818067  0.68656159     0.15000
C268        C  0.16173541  0.85441457  0.57857010     0.86800
C269        C  0.14829243  0.87576148  0.56152290    -0.53500
C270        C  0.13038536  0.89080010  0.57506419     0.09700
C271        C  0.12825823  0.88372142  0.60452028     0.20600
C272        C  0.17422311  0.87001453  0.60137903    -0.54200
C273        C  0.15673029  0.88515331  0.61514055     0.09800
C274        C  0.13891724  0.83921243  0.59124336    -0.53700
C275        C  0.12133708  0.85439423  0.60452642     0.10400
H276        H  0.15138288  0.87766587  0.54041977     0.14900
H277        H  0.11387684  0.89600689  0.61555307     0.00600
H278        H  0.19513138  0.87053714  0.60568694     0.15200
H279        H  0.13676731  0.81798909  0.58968087     0.15000
O280        O  0.02602326  0.02643423  0.44178229    -0.78200
C281        C  0.97620480  0.95496604  0.45396726     0.82800
O282        O  0.95432562  0.05383426  0.49743829    -0.79300
O283        O  0.96950221  0.96828098  0.53936933    -0.80800
O284        O  0.06170468  0.98383477  0.51902913    -0.80600
O285        O  0.05750476  0.03135111  0.47208102    -0.79200
Zn286      Zn  0.99392114  0.01251044  0.46182510     1.55700
O287        O  0.03075385  0.95302661  0.52316071    -0.80600
Cd288      Cd  0.04035859  0.01628307  0.50578725     1.59700
Cd289      Cd  0.97964434  0.03202750  0.52168547     1.59600
O290        O  0.04403749  0.04486603  0.53433214    -0.80600
O291        O  0.00226886  0.00805406  0.49920908    -1.91100
Cd292      Cd  0.99645552  0.97038441  0.50910011     1.59900
O293        O  0.00317245  0.05831982  0.54362258    -0.80600
O294        O  0.98154812  0.94847580  0.47769204    -0.79200
C295        C  0.95077785  0.05388973  0.47247891     0.83300
C296        C  0.04918049  0.03380651  0.44849460     0.83000
O297        O  0.98054056  0.97828977  0.44560765    -0.78200
C298        C  0.05455282  0.96074465  0.52581797     0.83800
O299        O  0.96437576  0.03912930  0.45731979    -0.78300
C300        C  0.02818703  0.05987283  0.54674421     0.83900
C301        C  0.95556502  0.98465477  0.55234380     0.84200
O302        O  0.95669815  0.00942732  0.54790870    -0.80700
O303        O  0.68920144  0.30845855  0.47267951    -0.78200
C304        C  0.71535817  0.24633375  0.53267052     0.82800
O305        O  0.72518009  0.35763564  0.52637778    -0.79300
O306        O  0.79297765  0.29465388  0.54564163    -0.80800
O307        O  0.76629590  0.25880748  0.45523703    -0.80600
O308        O  0.71801991  0.30665557  0.43974487    -0.79200
Zn309      Zn  0.71002658  0.29782286  0.50456913     1.55700
O310        O  0.78463458  0.25006336  0.49437228    -0.80600
Cd311      Cd  0.75217033  0.29668481  0.46099212     1.59700
Cd312      Cd  0.75678959  0.33851939  0.50808081     1.59600
O313        O  0.78130565  0.32231422  0.44963441    -0.80600
O314        O  0.74650794  0.30220871  0.49881283    -1.91100
Cd315      Cd  0.76599268  0.27591992  0.52012687     1.59900
O316        O  0.77511847  0.35686383  0.47609710    -0.80600
O317        O  0.73894482  0.25190642  0.53966239    -0.79200
C318        C  0.70545908  0.34643807  0.53748445     0.83300
C319        C  0.69489416  0.31178598  0.44846485     0.83000
O320        O  0.70242921  0.26090702  0.51674004    -0.78200
C321        C  0.78063438  0.24433853  0.47014900     0.83800
O322        O  0.69927273  0.32275866  0.53232265    -0.78300
C323        C  0.78638641  0.34593470  0.45634415     0.83900
C324        C  0.79829185  0.31910479  0.54878351     0.84200
O325        O  0.78599794  0.33691316  0.53607916    -0.80700
O326        O  0.02410260  0.69942140  0.69578243    -0.78200
C327        C  0.96652144  0.72761173  0.75862693     0.82800
O328        O  0.97026287  0.73629868  0.64652574    -0.79300
O329        O  0.95248957  0.80456581  0.70991126    -0.80800
O330        O  0.04234690  0.77520643  0.74554300    -0.80600
O331        O  0.05748306  0.72750872  0.69857169    -0.79200
Zn332      Zn  0.99223743  0.72082209  0.70575614     1.55700
O333        O  0.00452486  0.79677939  0.75223835    -0.80600
Cd334      Cd  0.03638766  0.76180071  0.70743282     1.59700
Cd335      Cd  0.98842684  0.76800570  0.66542216     1.59600
O336        O  0.04834972  0.79021866  0.68148500    -0.80600
O337        O  0.99842549  0.75716102  0.70139432    -1.91100
Cd338      Cd  0.97837212  0.77759481  0.72780220     1.59900
O339        O  0.02099989  0.78539693  0.64714855    -0.80600
O340        O  0.96043241  0.75151212  0.75365895    -0.79200
C341        C  0.95943639  0.71618228  0.65725508     0.83300
C342        C  0.04856530  0.70459511  0.69343785     0.83000
O343        O  0.98056549  0.71403345  0.74279252    -0.78200
C344        C  0.02802202  0.79085172  0.75911347     0.83800
O345        O  0.96427369  0.70978549  0.68101471    -0.78300
C346        C  0.04150280  0.79549305  0.65787198     0.83900
C347        C  0.94824388  0.80979657  0.68557740     0.84200
O348        O  0.96015420  0.79739244  0.66723251    -0.80700
C349        C  0.15111621  0.58654295  0.66088955     0.86800
C350        C  0.13457245  0.60853762  0.67380078    -0.53500
C351        C  0.11844838  0.62171034  0.65669876     0.09700
C352        C  0.12012349  0.61151419  0.62806027     0.20600
C353        C  0.13046738  0.56880267  0.64744579    -0.54200
C354        C  0.11448954  0.58162284  0.62969132     0.09800
C355        C  0.16550775  0.60023331  0.63812172    -0.53700
C356        C  0.14948713  0.61294205  0.62089689     0.10400
H357        H  0.13470347  0.61332861  0.69456670     0.14900
H358        H  0.10763443  0.62258513  0.61392157     0.00600
H359        H  0.12916306  0.54788813  0.65146592     0.15200
H360        H  0.18682589  0.59973616  0.63565016     0.15000
C361        C  0.16275264  0.35904578  0.42258029     0.86800
C362        C  0.17441986  0.37550660  0.39992083    -0.53500
C363        C  0.15629603  0.38965775  0.38567925     0.09700
C364        C  0.12783131  0.38681576  0.39686620     0.20600
C365        C  0.14852343  0.37954978  0.43971184    -0.54200
C366        C  0.12997117  0.39394298  0.42650292     0.09800
C367        C  0.14074832  0.34277530  0.40999233    -0.53700
C368        C  0.12230567  0.35699037  0.39671119     0.10400
H369        H  0.19543847  0.37720134  0.39669899     0.14900
H370        H  0.11233727  0.39814324  0.38646522     0.00600
H371        H  0.15253997  0.38237372  0.46054198     0.15200
H372        H  0.14002300  0.32144759  0.41140096     0.15000
C373        C  0.83650016  0.65978974  0.57569762     0.86800
C374        C  0.85174942  0.63902737  0.55927100    -0.53500
C375        C  0.86944228  0.62450763  0.57370420     0.09700
C376        C  0.86975858  0.63158896  0.60323595     0.20600
C377        C  0.82349407  0.64373760  0.59779693    -0.54200
C378        C  0.84073211  0.62919708  0.61250268     0.09800
C379        C  0.85812143  0.67573403  0.58932013    -0.53700
C380        C  0.87581408  0.66127301  0.60330173     0.10400
H381        H  0.84985161  0.63638771  0.53818101     0.14900
H382        H  0.88381461  0.61958755  0.61497911     0.00600
H383        H  0.80235010  0.64372756  0.60136708     0.15200
H384        H  0.85922598  0.69703291  0.58787417     0.15000
C385        C  0.84972620  0.42608292  0.34043538     0.86800
C386        C  0.87124525  0.44301618  0.35360549    -0.53500
C387        C  0.88660933  0.42954405  0.37131480     0.09700
C388        C  0.87945509  0.40011136  0.37361335     0.20600
C389        C  0.86520444  0.40318557  0.32785318    -0.54200
C390        C  0.88059829  0.38946943  0.34518073     0.09800
C391        C  0.83468468  0.41350600  0.36340298    -0.53700
C392        C  0.85004429  0.40017763  0.38080084     0.10400
H393        H  0.87294408  0.46407810  0.35047945     0.14900
H394        H  0.89185398  0.38891854  0.38778244     0.00600
H395        H  0.86537171  0.39860651  0.30703392     0.15200
H396        H  0.81339208  0.41498470  0.36569931     0.15000
C397        C  0.92058360  0.34799293  0.65024630     0.86800
C398        C  0.89893964  0.33514856  0.63334998    -0.53500
C399        C  0.88382413  0.35238164  0.61894484     0.09700
C400        C  0.89345312  0.38136113  0.62203451     0.20600
C401        C  0.93724319  0.36308987  0.62995380    -0.54200
C402        C  0.92332200  0.38097707  0.61530690     0.09800
C403        C  0.90645720  0.36915853  0.66632797    -0.53700
C404        C  0.89258792  0.38685968  0.65182783     0.10400
H405        H  0.89728659  0.31409538  0.63148992     0.14900
H406        H  0.88239577  0.39641573  0.61088818     0.00600
H407        H  0.95832421  0.36004837  0.62762137     0.15200
H408        H  0.90768060  0.37016444  0.68770402     0.15000
C409        C  0.07833737  0.66837932  0.34773551     0.86800
C410        C  0.06124121  0.65414265  0.36865848    -0.53500
C411        C  0.07505796  0.63634294  0.38351993     0.09700
C412        C  0.10464527  0.63487960  0.37668801     0.20600
C413        C  0.10085265  0.68082791  0.36368235    -0.54200
C414        C  0.11459827  0.66361138  0.37931576     0.09800
C415        C  0.09114693  0.64598322  0.33218163    -0.53700
C416        C  0.10495210  0.62857436  0.34699564     0.10400
H417        H  0.04013797  0.65646094  0.37101810     0.14900
H418        H  0.11544983  0.62026725  0.38884141     0.00600
H419        H  0.10559477  0.70156118  0.36208466     0.15200
H420        H  0.08942653  0.64404621  0.31089652     0.15000
O421        O  0.01850344  0.56789309  0.47753595    -0.78200
C422        C  0.94617747  0.55502274  0.52448623     0.82800
O423        O  0.04367119  0.50899546  0.54915008    -0.79300
O424        O  0.95734615  0.47080717  0.53118576    -0.80800
O425        O  0.97870460  0.48841638  0.43972692    -0.80600
O426        O  0.02255248  0.53832894  0.44541738    -0.79200
Zn427      Zn  0.00428889  0.54661287  0.50879906     1.55700
O428        O  0.94615066  0.48551899  0.46917682    -0.80600
Cd429      Cd  0.00960051  0.50379387  0.46200685     1.59700
Cd430      Cd  0.02196693  0.48598292  0.52282949     1.59600
O431        O  0.04085512  0.47791477  0.45930678    -0.80600
O432        O  0.99963599  0.50958877  0.49967827    -1.91100
Cd433      Cd  0.96155712  0.50037228  0.50380069     1.59900
O434        O  0.04856507  0.46366707  0.50018375    -0.80600
O435        O  0.93924997  0.53206838  0.51710641    -0.79200
C436        C  0.04430300  0.53388362  0.55261039     0.83300
C437        C  0.02521150  0.56169706  0.45405885     0.83000
O438        O  0.97006792  0.56274364  0.52240670    -0.78200
C439        C  0.95526039  0.48177442  0.44604728     0.83800
O440        O  0.03051473  0.54944192  0.53847655    -0.78300
C441        C  0.05365706  0.46356917  0.47548256     0.83900
C442        C  0.97292129  0.45719160  0.54544007     0.84200
O443        O  0.99792563  0.46051831  0.54474842    -0.80700
C444        C  0.66210876  0.35910089  0.07696000     0.86800
C445        C  0.64651765  0.37877107  0.05959297    -0.53500
C446        C  0.62914807  0.39426538  0.07340157     0.09700
C447        C  0.62939504  0.38886464  0.10344095     0.20600
C448        C  0.67548501  0.37629418  0.09790887    -0.54200
C449        C  0.65848945  0.39168902  0.11185471     0.09800
C450        C  0.64043437  0.34396292  0.09163796    -0.53700
C451        C  0.62338045  0.35932487  0.10537510     0.10400
H452        H  0.64727463  0.37924193  0.03831173     0.14900
H453        H  0.61574265  0.40134836  0.11513701     0.00600
H454        H  0.69659842  0.37604815  0.10165732     0.15200
H455        H  0.63850820  0.32267166  0.09095241     0.15000
C456        C  0.57996895  0.66983870  0.14993861     0.86800
C457        C  0.60121728  0.68236192  0.13234813    -0.53500
C458        C  0.61568860  0.66469997  0.11797577     0.09700
C459        C  0.60702441  0.63580840  0.12240415     0.20600
C460        C  0.56310529  0.65364529  0.13045707    -0.54200
C461        C  0.57719965  0.63555690  0.11630564     0.09800
C462        C  0.59449071  0.64919760  0.16650318    -0.53700
C463        C  0.60853620  0.63140566  0.15232269     0.10400
H464        H  0.60417989  0.70347669  0.13113117     0.14900
H465        H  0.61854252  0.62103136  0.11119733     0.00600
H466        H  0.54197647  0.65558070  0.12800073     0.15200
H467        H  0.59345058  0.64855108  0.18791057     0.15000
C468        C  0.42205617  0.34501964  0.85257320     0.86800
C469        C  0.43850462  0.36223094  0.87154081    -0.53500
C470        C  0.42399510  0.38084896  0.88476641     0.09700
C471        C  0.39427472  0.38007995  0.87808391     0.20600
C472        C  0.40064599  0.33317822  0.87038989    -0.54200
C473        C  0.38573401  0.35134411  0.88359281     0.09800
C474        C  0.40763280  0.36469376  0.83487759    -0.53700
C475        C  0.39327191  0.38294478  0.84798359     0.10400
H476        H  0.45938831  0.35955814  0.87511471     0.14900
H477        H  0.38243479  0.39522067  0.88845924     0.00600
H478        H  0.39723350  0.31214554  0.87187616     0.15200
H479        H  0.40874434  0.36427286  0.81346123     0.15000
C480        C  0.34039916  0.65930371  0.91767516     0.86800
C481        C  0.32853019  0.64335027  0.89479538    -0.53500
C482        C  0.34643822  0.62823221  0.88143702     0.09700
C483        C  0.37480087  0.63035193  0.89260367     0.20600
C484        C  0.35366494  0.63819544  0.93503632    -0.54200
C485        C  0.37209171  0.62338145  0.92208009     0.09800
C486        C  0.36314140  0.67481831  0.90540464    -0.53700
C487        C  0.38130147  0.65990496  0.89257323     0.10400
H488        H  0.30757457  0.64247607  0.89063223     0.14900
H489        H  0.38963321  0.61823047  0.88200575     0.00600
H490        H  0.34974774  0.63591964  0.95595405     0.15200
H491        H  0.36461287  0.69610858  0.90672563     0.15000
C492        C  0.64851172  0.58232929  0.84268584     0.86800
C493        C  0.62844838  0.56611911  0.85879479    -0.53500
C494        C  0.61348651  0.58081009  0.87594452     0.09700
C495        C  0.61994815  0.61060505  0.87502895     0.20600
C496        C  0.63121798  0.60314431  0.82897600    -0.54200
C497        C  0.61665816  0.61825945  0.84573513     0.09800
C498        C  0.66446856  0.59741444  0.86327788    -0.53700
C499        C  0.64979386  0.61198560  0.88021473     0.10400
H500        H  0.62627546  0.54504420  0.85708394     0.14900
H501        H  0.60803809  0.62303618  0.88852616     0.00600
H502        H  0.63060679  0.60593845  0.80774920     0.15200
H503        H  0.68590336  0.59677773  0.86427694     0.15000
C504        C  0.34666016  0.42521768  0.16182234     0.86800
C505        C  0.36407847  0.40390373  0.17459267    -0.53500
C506        C  0.38019911  0.39089712  0.15723344     0.09700
C507        C  0.37729399  0.40068281  0.12844447     0.20600
C508        C  0.36667439  0.44320527  0.14779870    -0.54200
C509        C  0.38231215  0.43048674  0.13003705     0.09800
C510        C  0.33189808  0.41129920  0.13963540    -0.53700
C511        C  0.34767483  0.39871936  0.12205352     0.10400
H512        H  0.36383605  0.39960125  0.19550878     0.14900
H513        H  0.39011242  0.39056918  0.11386324     0.00600
H514        H  0.36852776  0.46416541  0.15136737     0.15200
H515        H  0.31052629  0.41179092  0.13768791     0.15000
O516        O  0.46872553  0.56247492  0.98098020    -0.78200
C517        C  0.52417246  0.55932659  0.04995503     0.82800
O518        O  0.53923494  0.50917427  0.95313143    -0.79300
O519        O  0.53577272  0.47381277  0.04265292    -0.80800
O520        O  0.44191014  0.48815323  0.03484161    -0.80600
O521        O  0.43710073  0.53236654  0.98479307    -0.79200
Zn522      Zn  0.50193052  0.54581773  0.99564985     1.55700
O523        O  0.47597919  0.48734833  0.06274468    -0.80600
Cd524      Cd  0.45803138  0.50045825  0.99946741     1.59700
Cd525      Cd  0.51809953  0.48577462  0.97949153     1.59600
O526        O  0.45287356  0.47022842  0.97260901    -0.80600
O527        O  0.49643140  0.50881198  0.00355977    -1.91100
Cd528      Cd  0.50701648  0.50206180  0.04081705     1.59900
O529        O  0.49331300  0.46106184  0.95782980    -0.80600
O530        O  0.52250866  0.53561739  0.05803739    -0.79200
C531        C  0.54189609  0.53412468  0.95199746     0.83300
C532        C  0.44491074  0.55510275  0.97759716     0.83000
O533        O  0.51572825  0.56612523  0.02724870    -0.78200
C534        C  0.45179673  0.48306695  0.05739670     0.83800
O535        O  0.52935063  0.54942722  0.96740973    -0.78300
C536        C  0.46836636  0.45723952  0.95766328     0.83900
C537        C  0.54891327  0.46051483  0.02595850     0.84200
O538        O  0.54520879  0.46288807  0.00112308    -0.80700
O539        O  0.30271898  0.48383419  0.68728851    -0.78200
C540        C  0.24068682  0.54121857  0.71690024     0.82800
O541        O  0.35362232  0.53372203  0.72960810    -0.79300
O542        O  0.28941667  0.55288211  0.79332662    -0.80800
O543        O  0.25182773  0.46358143  0.76393626    -0.80600
O544        O  0.29566794  0.44961617  0.71356325    -0.79200
Zn545      Zn  0.29375186  0.51479825  0.71036485     1.55700
O546        O  0.24618310  0.50096017  0.78641539    -0.80600
Cd547      Cd  0.28942711  0.46863379  0.74924084     1.59700
Cd548      Cd  0.33322790  0.51369907  0.75938460     1.59600
O549        O  0.31576734  0.45239981  0.77519624    -0.80600
O550        O  0.29704394  0.50635408  0.74662589    -1.91100
Cd551      Cd  0.27080521  0.52696901  0.76697578     1.59900
O552        O  0.35027311  0.47971604  0.77543067    -0.80600
O553        O  0.24488159  0.54563621  0.74132090    -0.79200
C554        C  0.34347218  0.54624122  0.71017928     0.83300
C555        C  0.30233941  0.45909872  0.69124794     0.83000
O556        O  0.25711075  0.52820038  0.70296981    -0.78200
C557        C  0.23891452  0.47769463  0.78028002     0.83800
O558        O  0.31996812  0.54238890  0.70230160    -0.78300
C559        C  0.33920863  0.45811145  0.78224773     0.83900
C560        C  0.31355603  0.55429601  0.80065279     0.84200
O561        O  0.33147488  0.54005505  0.79028781    -0.80700
C562        C  0.66074492  0.65810823  0.42210509     0.86800
C563        C  0.64488458  0.63951733  0.44014346    -0.53500
C564        C  0.62773657  0.62334107  0.42699490     0.09700
C565        C  0.62890794  0.62666562  0.39672576     0.20600
C566        C  0.67483493  0.63963132  0.40244243    -0.54200
C567        C  0.65827236  0.62307973  0.38906990     0.09800
C568        C  0.63992655  0.67219378  0.40530276    -0.53700
C569        C  0.62319883  0.65595370  0.39234936     0.10400
H570        H  0.64598945  0.64036423  0.46150549     0.14900
H571        H  0.61537957  0.61344023  0.38588657     0.00600
H572        H  0.69567220  0.64030345  0.39808637     0.15200
H573        H  0.63810104  0.69348517  0.40422180     0.15000
C574        C  0.65008081  0.42599592  0.66108656     0.86800
C575        C  0.62937231  0.44282067  0.64658404    -0.53500
C576        C  0.61436911  0.42916932  0.62878555     0.09700
C577        C  0.62082036  0.39946843  0.62815787     0.20600
C578        C  0.63389953  0.40378747  0.67412552    -0.54200
C579        C  0.61835800  0.38974037  0.65705417     0.09800
C580        C  0.66557393  0.41215419  0.63922674    -0.53700
C581        C  0.65049327  0.39872017  0.62180525     0.10400
H582        H  0.62812847  0.46401298  0.64890387     0.14900
H583        H  0.60844837  0.38851219  0.61404259     0.00600
H584        H  0.63471686  0.39905281  0.69486080     0.15200
H585        H  0.68692681  0.41336525  0.63732893     0.15000
C586        C  0.42238857  0.66889633  0.65236959     0.86800
C587        C  0.43919654  0.65295613  0.63281319    -0.53500
C588        C  0.42526470  0.63481453  0.61856176     0.09700
C589        C  0.39539883  0.63480556  0.62487449     0.20600
C590        C  0.40078494  0.68141195  0.63502262    -0.54200
C591        C  0.38659805  0.66357455  0.62083334     0.09800
C592        C  0.40787234  0.64835820  0.66896656    -0.53700
C593        C  0.39396340  0.63050966  0.65481178     0.10400
H594        H  0.46034199  0.65570255  0.63066101     0.14900
H595        H  0.38357073  0.62024830  0.61368588     0.00600
H596        H  0.39694990  0.70229389  0.63325698     0.15200
H597        H  0.40907904  0.64759955  0.69036506     0.15000
C598        C  0.34895569  0.58503308  0.33947799     0.86800
C599        C  0.36610717  0.60620314  0.32632582    -0.53500
C600        C  0.38120853  0.62059524  0.34344739     0.09700
C601        C  0.37799390  0.61172779  0.37253983     0.20600
C602        C  0.36898060  0.56800297  0.35496695    -0.54200
C603        C  0.38397090  0.58209672  0.37235629     0.09800
C604        C  0.33334046  0.59941934  0.36095578    -0.53700
C605        C  0.34829611  0.61312826  0.37840192     0.10400
H606        H  0.36666683  0.60875587  0.30510035     0.14900
H607        H  0.39010698  0.62273196  0.38700991     0.00600
H608        H  0.37086300  0.54684482  0.35354515     0.15200
H609        H  0.31197098  0.59827306  0.36253930     0.15000
C610        C  0.57806927  0.34909654  0.34770972     0.86800
C611        C  0.60020658  0.33638078  0.36394624    -0.53500
C612        C  0.61408660  0.35356628  0.37913922     0.09700
C613        C  0.60433000  0.38224921  0.37706244     0.20600
C614        C  0.56080879  0.36347554  0.36842910    -0.54200
C615        C  0.57461155  0.38104325  0.38366414     0.09800
C616        C  0.59125574  0.37146042  0.33236863    -0.53700
C617        C  0.60491945  0.38881671  0.34743216     0.10400
H618        H  0.60444860  0.31542705  0.36358046     0.14900
H619        H  0.61569145  0.39622688  0.38946031     0.00600
H620        H  0.53964110  0.36133174  0.37028973     0.15200
H621        H  0.58994611  0.37332752  0.31104672     0.15000
C622        C  0.34156312  0.35437085  0.57775703     0.86800
C623        C  0.32664728  0.37243804  0.59692115    -0.53500
C624        C  0.34260240  0.38835058  0.61153021     0.09700
C625        C  0.37225051  0.38511025  0.60541182     0.20600
C626        C  0.35811676  0.37363527  0.56091585    -0.54200
C627        C  0.37439901  0.38950653  0.57544838     0.09800
C628        C  0.36184371  0.33978663  0.59463413    -0.53700
C629        C  0.37796930  0.35564481  0.60886121     0.10400
H630        H  0.30528068  0.37283533  0.59867359     0.14900
H631        H  0.38521692  0.39800365  0.61741083     0.00600
H632        H  0.35749785  0.37479151  0.53959750     0.15200
H633        H  0.36381774  0.31848177  0.59474253     0.15000
O634        O  0.47246092  0.45325279  0.52365475    -0.78200
C635        C  0.52576081  0.45673899  0.45397165     0.82800
O636        O  0.54388104  0.50602527  0.55154262    -0.79300
O637        O  0.53655970  0.54252791  0.46125679    -0.80800
O638        O  0.44432283  0.53012425  0.47297775    -0.80600
O639        O  0.44097366  0.48372359  0.52039253    -0.79200
Zn640      Zn  0.50564547  0.46991693  0.50923048     1.55700
O641        O  0.47595728  0.52735897  0.44269464    -0.80600
Cd642      Cd  0.46183072  0.51592095  0.50689484     1.59700
Cd643      Cd  0.52249184  0.52968621  0.52531192     1.59600
O644        O  0.45793008  0.54530902  0.53435189    -0.80600
O645        O  0.49985604  0.50701238  0.50167152    -1.91100
Cd646      Cd  0.50827801  0.51381737  0.46390229     1.59900
O647        O  0.49873707  0.55523136  0.54745656    -0.80600
O648        O  0.52339514  0.48045891  0.44613003    -0.79200
C649        C  0.54608212  0.48101507  0.55275727     0.83300
C650        C  0.44862433  0.46069769  0.52675041     0.83000
O651        O  0.51859189  0.44971547  0.47705264    -0.78200
C652        C  0.45250984  0.53349418  0.44947113     0.83800
O653        O  0.53327283  0.46593445  0.53734444    -0.78300
C654        C  0.47376051  0.55876093  0.54840150     0.83900
C655        C  0.55092167  0.55519724  0.47745847     0.84200
O656        O  0.54884814  0.55212512  0.50242170    -0.80700
O657        O  0.48509626  0.71304943  0.75320292    -0.78200
C658        C  0.55353014  0.70294409  0.80224342     0.82800
O659        O  0.47584942  0.73499504  0.84943955    -0.79300
O660        O  0.55411991  0.78936358  0.81416244    -0.80800
O661        O  0.50946044  0.79620315  0.74426427    -0.80600
O662        O  0.46548617  0.75072760  0.74229902    -0.79200
Zn663      Zn  0.49758164  0.71970052  0.78973158     1.55700
O664        O  0.54755779  0.77466458  0.74990977    -0.80600
Cd665      Cd  0.48377049  0.77625373  0.76813444     1.59700
Cd666      Cd  0.49393827  0.76682769  0.83032701     1.59600
O667        O  0.45774977  0.80273058  0.78557424    -0.80600
O668        O  0.50409427  0.75595801  0.79440295    -1.91100
Cd669      Cd  0.54211036  0.76070391  0.78839356     1.59900
O670        O  0.46516045  0.79573078  0.82832086    -0.80600
O671        O  0.56264197  0.72613287  0.79867021    -0.79200
C672        C  0.46498902  0.71494337  0.83864735     0.83300
C673        C  0.47099226  0.72670945  0.73752854     0.83000
O674        O  0.52926935  0.69781497  0.79842744    -0.78200
C675        C  0.53290012  0.79070519  0.73700923     0.83800
O676        O  0.46996701  0.70861255  0.81490997    -0.78300
C677        C  0.45325023  0.80788604  0.80979803     0.83900
C678        C  0.54688294  0.79528682  0.83750347     0.84200
O679        O  0.52626406  0.78523949  0.84816523    -0.80700
O680        O  0.25499976  0.98604787  0.20146682    -0.78200
C681        C  0.30448193  0.05460696  0.19410569     0.82800
O682        O  0.35138920  0.97617172  0.22466392    -0.79300
O683        O  0.31411570  0.05323563  0.27969492    -0.80800
O684        O  0.24323305  0.00875421  0.28397879    -0.80600
O685        O  0.24454214  0.96471858  0.23852616    -0.79200
Zn686      Zn  0.29199438  0.99806095  0.20877126     1.55700
O687        O  0.25099587  0.04674709  0.26337586    -0.80600
Cd688      Cd  0.26910978  0.98320169  0.26537012     1.59700
Cd689      Cd  0.33189407  0.99427363  0.25630161     1.59600
O690        O  0.28743329  0.95789405  0.29262273    -0.80600
O691        O  0.29570074  0.00351324  0.24538168    -1.91100
Cd692      Cd  0.28914634  0.04103141  0.25067699     1.59900
O693        O  0.33019207  0.96600727  0.28563341    -0.80600
O694        O  0.29855263  0.06268092  0.21715930    -0.79200
C695        C  0.34078685  0.96541610  0.20443309     0.83300
C696        C  0.23950298  0.97126626  0.21470628     0.83000
O697        O  0.30258362  0.03037487  0.18802241    -0.78200
C698        C  0.23683933  0.03243316  0.27847588     0.83800
O699        O  0.31707250  0.97037946  0.19788508    -0.78300
C700        C  0.31185216  0.95388747  0.29785366     0.83900
C701        C  0.33808499  0.04727838  0.28432781     0.84200
O702        O  0.34935806  0.02734149  0.27369882    -0.80700
O703        O  0.19024326  0.80792781  0.96992168    -0.78200
C704        C  0.21851182  0.74598222  0.02853313     0.82800
O705        O  0.22678904  0.85761655  0.02328098    -0.79300
O706        O  0.29579316  0.79392112  0.04032959    -0.80800
O707        O  0.26624777  0.75909275  0.95077567    -0.80600
O708        O  0.21833595  0.80649292  0.93645694    -0.79200
Zn709      Zn  0.21154219  0.79805156  0.00174959     1.55700
O710        O  0.28698092  0.75161847  0.98889219    -0.80600
Cd711      Cd  0.25240373  0.79682345  0.95734691     1.59700
Cd712      Cd  0.25894160  0.83878501  0.00501178     1.59600
O713        O  0.28060232  0.82243553  0.94494417    -0.80600
O714        O  0.24794246  0.80276924  0.99531851    -1.91100
Cd715      Cd  0.26832198  0.77627398  0.01520563     1.59900
O716        O  0.27706107  0.85673780  0.97220955    -0.80600
O717        O  0.24237890  0.75136957  0.03456176    -0.79200
C718        C  0.20658850  0.84693087  0.03416119     0.83300
C719        C  0.19535716  0.81125171  0.94557839     0.83000
O720        O  0.20477361  0.76101363  0.01376704    -0.78200
C721        C  0.28183960  0.74540407  0.96506254     0.83800
O722        O  0.20026936  0.82315392  0.02945418    -0.78300
C723        C  0.28666304  0.84581572  0.95151834     0.83900
C724        C  0.30085501  0.81811962  0.04498192     0.84200
O725        O  0.28833034  0.83663762  0.03344776    -0.80700
C726        C  0.35057599  0.92864981  0.83595934     0.86800
C727        C  0.37168191  0.94537054  0.85015221    -0.53500
C728        C  0.38615301  0.93159348  0.86830378     0.09700
C729        C  0.37905697  0.90217768  0.86976990     0.20600
C730        C  0.36669823  0.90604321  0.82352508    -0.54200
C731        C  0.38173713  0.89201554  0.84113187     0.09800
C732        C  0.33468778  0.91565355  0.85808353    -0.53700
C733        C  0.34937428  0.90195151  0.87567690     0.10400
H734        H  0.37406651  0.96638523  0.84721463     0.14900
H735        H  0.39100712  0.89147760  0.88460771     0.00600
H736        H  0.36667605  0.90168544  0.80263789     0.15200
H737        H  0.31331429  0.91700007  0.85960001     0.15000
C738        C  0.66034857  0.85698160  0.92261448     0.86800
C739        C  0.67327547  0.87297660  0.90041912    -0.53500
C740        C  0.65621569  0.88858360  0.88674957     0.09700
C741        C  0.62744462  0.88706020  0.89668993     0.20600
C742        C  0.64648217  0.87789498  0.93992301    -0.54200
C743        C  0.62881478  0.89352025  0.92652885     0.09800
C744        C  0.63754367  0.84218361  0.90956942    -0.53700
C745        C  0.62049053  0.85767840  0.89599320     0.10400
H746        H  0.69423244  0.87209545  0.89593417     0.14900
H747        H  0.61337698  0.89901468  0.88501285     0.00600
H748        H  0.64982062  0.88022926  0.96083176     0.15200
H749        H  0.63529939  0.82093325  0.91059198     0.15000
C750        C  0.42097021  0.84170475  0.14965545     0.86800
C751        C  0.39897161  0.82932607  0.13267361    -0.53500
C752        C  0.38585240  0.84692327  0.11684567     0.09700
C753        C  0.39586413  0.87554574  0.12003453     0.20600
C754        C  0.43873483  0.85610157  0.12962123    -0.54200
C755        C  0.42570926  0.87416406  0.11437558     0.09800
C756        C  0.40691791  0.86353173  0.16493035    -0.53700
C757        C  0.39438405  0.88157650  0.14972290     0.10400
H758        H  0.39369628  0.80874942  0.13322998     0.14900
H759        H  0.38543763  0.89033317  0.10776089     0.00600
H760        H  0.45984658  0.85270518  0.12817457     0.15200
H761        H  0.40729613  0.86482134  0.18632481     0.15000
C762        C  0.33873402  0.15943012  0.07972574     0.86800
C763        C  0.35322586  0.13899907  0.06249907    -0.53500
C764        C  0.37127835  0.12414372  0.07597340     0.09700
C765        C  0.37270304  0.13052720  0.10560424     0.20600
C766        C  0.32631415  0.14293281  0.10200274    -0.54200
C767        C  0.34399058  0.12769189  0.11552952     0.09800
C768        C  0.36061974  0.17503862  0.09339043    -0.53700
C769        C  0.37879188  0.16026451  0.10647758     0.10400
H770        H  0.35031110  0.13727724  0.04135584     0.14900
H771        H  0.38708602  0.11809864  0.11641489     0.00600
H772        H  0.30541713  0.14209110  0.10634174     0.15200
H773        H  0.36173242  0.19636318  0.09235445     0.15000
C774        C  0.57885191  0.16713188  0.85096134     0.86800
C775        C  0.56106891  0.15281987  0.87113858    -0.53500
C776        C  0.57425014  0.13496728  0.88649669     0.09700
C777        C  0.60412448  0.13362020  0.88077063     0.20600
C778        C  0.60030176  0.17969823  0.86815816    -0.54200
C779        C  0.61398958  0.16245975  0.88374228     0.09800
C780        C  0.59269734  0.14515026  0.83577981    -0.53700
C781        C  0.60539649  0.12724998  0.85108350     0.10400
H782        H  0.53985879  0.15557557  0.87236299     0.14900
H783        H  0.61432995  0.11899304  0.89336093     0.00600
H784        H  0.60390974  0.20063197  0.86859916     0.15200
H785        H  0.59184306  0.14351483  0.81442296     0.15000
C786        C  0.65282180  0.08516772  0.15835084     0.86800
C787        C  0.63734983  0.10778601  0.17104698    -0.53500
C788        C  0.62185166  0.12144639  0.15393315     0.09700
C789        C  0.62301509  0.11121762  0.12532125     0.20600
C790        C  0.63136956  0.06817628  0.14497634    -0.54200
C791        C  0.61581690  0.08165627  0.12732513     0.09800
C792        C  0.66781289  0.09751641  0.13523832    -0.53700
C793        C  0.65251625  0.11122475  0.11804943     0.10400
H794        H  0.63831212  0.11241471  0.19193873     0.14900
H795        H  0.61101856  0.12281624  0.11123469     0.00600
H796        H  0.62846252  0.04746448  0.14879758     0.15200
H797        H  0.68909536  0.09593242  0.13294273     0.15000
O798        O  0.47655823  0.98689205  0.94156947    -0.78200
C799        C  0.52313385  0.05901910  0.95477490     0.82800
O800        O  0.54755432  0.96250242  0.00139584    -0.79300
O801        O  0.52930788  0.04808791  0.03975860    -0.80800
O802        O  0.43752044  0.02872751  0.01961888    -0.80600
O803        O  0.44342616  0.98371245  0.97023693    -0.79200
Zn804      Zn  0.50721574  0.00138558  0.96329832     1.55700
O805        O  0.46791657  0.06020037  0.02317185    -0.80600
Cd806      Cd  0.45952760  0.99701408  0.00520416     1.59700
Cd807      Cd  0.52038678  0.98382997  0.02408149     1.59600
O808        O  0.45605840  0.96603785  0.03145455    -0.80600
O809        O  0.49763871  0.00625810  0.00019667    -1.91100
Cd810      Cd  0.50251790  0.04409235  0.00950868     1.59900
O811        O  0.49693212  0.95719101  0.04528991    -0.80600
O812        O  0.51627586  0.06611579  0.97788011    -0.79200
C813        C  0.55141808  0.96207572  0.97648799     0.83300
C814        C  0.45282463  0.98051365  0.94713609     0.83000
O815        O  0.52047799  0.03530312  0.94706209    -0.78200
C816        C  0.44434459  0.05201141  0.02612155     0.83800
O817        O  0.53733713  0.97578671  0.96081974    -0.78300
C818        C  0.47210728  0.95261643  0.04541518     0.83900
C819        C  0.54278196  0.03231534  0.05392154     0.84200
O820        O  0.54158722  0.00740148  0.05064208    -0.80700
O821        O  0.98019447  0.80273108  0.24579637    -0.78200
C822        C  0.04884649  0.81283538  0.19620086     0.82800
O823        O  0.97130804  0.77971991  0.14862486    -0.79300
O824        O  0.05136805  0.72781111  0.18429142    -0.80800
O825        O  0.00608131  0.72245671  0.25674620    -0.80600
O826        O  0.95903537  0.76528558  0.25492884    -0.79200
Zn827      Zn  0.99255308  0.79639836  0.20838054     1.55700
O828        O  0.04450505  0.74199568  0.24773247    -0.80600
Cd829      Cd  0.97979065  0.73973716  0.23059980     1.59700
Cd830      Cd  0.99157405  0.74889305  0.16761901     1.59600
O831        O  0.95608293  0.71150652  0.21208197    -0.80600
O832        O  0.99989171  0.76008882  0.20401812    -1.91100
Cd833      Cd  0.03782258  0.75559073  0.21008103     1.59900
O834        O  0.96595214  0.71738529  0.16951207    -0.80600
O835        O  0.05788041  0.78999049  0.20136415    -0.79200
C836        C  0.96021447  0.80003276  0.15876528     0.83300
C837        C  0.96536506  0.78889491  0.26073188     0.83000
O838        O  0.02438317  0.81810209  0.19866143    -0.78200
C839        C  0.03013572  0.72742668  0.26237762     0.83800
O840        O  0.96486629  0.80699076  0.18246270    -0.78300
C841        C  0.95379186  0.70511105  0.18777604     0.83900
C842        C  0.04562420  0.72296280  0.16033747     0.84200
O843        O  0.02527405  0.73309426  0.14925558    -0.80700
O844        O  0.79680317  0.25543164  0.98083755    -0.78200
C845        C  0.80453289  0.20553136  0.05056222     0.82800
O846        O  0.77225961  0.15973624  0.97012472    -0.79300
O847        O  0.71822053  0.19296746  0.04957069    -0.80800
O848        O  0.71597118  0.26742578  0.00546270    -0.80600
O849        O  0.75957139  0.26501331  0.95936188    -0.79200
Zn850      Zn  0.78974628  0.21843464  0.99377544     1.55700
O851        O  0.73330035  0.25708511  0.04461752    -0.80600
Cd852      Cd  0.73308529  0.24117016  0.97950208     1.59700
Cd853      Cd  0.74192951  0.17857147  0.99030836     1.59600
O854        O  0.70452107  0.22360025  0.95510918    -0.80600
O855        O  0.75298567  0.21443723  0.00003586    -1.91100
Cd856      Cd  0.74698170  0.21927509  0.03805335     1.59900
O857        O  0.71198064  0.18116116  0.96337727    -0.80600
O858        O  0.78128577  0.21020087  0.05914896    -0.79200
C859        C  0.79295659  0.16997969  0.96001872     0.83300
C860        C  0.78340876  0.27037783  0.96557296     0.83000
O861        O  0.81036181  0.20849149  0.02628712    -0.78200
C862        C  0.71999476  0.27250894  0.02977151     0.83800
O863        O  0.80093363  0.19291183  0.96608507    -0.78300
C864        C  0.69924778  0.19923987  0.95153485     0.83900
C865        C  0.71383874  0.16926047  0.04260780     0.84200
O866        O  0.72494187  0.15909517  0.02236308    -0.80700
O867        O  0.24367712  0.02324820  0.70441802    -0.78200
C868        C  0.19393856  0.95508177  0.69678917     0.82800
O869        O  0.14762436  0.03495379  0.72692283    -0.79300
O870        O  0.18217004  0.95568949  0.78156400    -0.80800
O871        O  0.25542504  0.99963654  0.78592625    -0.80600
O872        O  0.25282309  0.04506391  0.74143391    -0.79200
Zn873      Zn  0.20671937  0.01131256  0.71162314     1.55700
O874        O  0.24687187  0.96098110  0.76700773    -0.80600
Cd875      Cd  0.22917312  0.02517747  0.76798623     1.59700
Cd876      Cd  0.16625779  0.01525260  0.75836895     1.59600
O877        O  0.21129439  0.04989090  0.79555291    -0.80600
O878        O  0.20251827  0.00520325  0.74804265    -1.91100
Cd879      Cd  0.20869625  0.96749429  0.75356492     1.59900
O880        O  0.16844640  0.04282938  0.78816541    -0.80600
O881        O  0.19974081  0.94643403  0.71967846    -0.79200
C882        C  0.15880498  0.04554665  0.70687658     0.83300
C883        C  0.25829145  0.03881893  0.71766851     0.83000
O884        O  0.19609519  0.97936141  0.69101562    -0.78200
C885        C  0.26149545  0.97571968  0.78121468     0.83800
O886        O  0.18232103  0.03959034  0.70041870    -0.78300
C887        C  0.18697113  0.05435784  0.80062362     0.83900
C888        C  0.15824047  0.96217975  0.78594400     0.84200
O889        O  0.14763911  0.98249396  0.77529414    -0.80700
C890        C  0.16281352  0.15899804  0.91970153     0.86800
C891        C  0.14738292  0.13913292  0.93695604    -0.53500
C892        C  0.12922216  0.12475882  0.92321229     0.09700
C893        C  0.12861968  0.13085828  0.89353375     0.20600
C894        C  0.17525110  0.14164712  0.89819049    -0.54200
C895        C  0.15750258  0.12675925  0.88433958     0.09800
C896        C  0.14161599  0.17511995  0.90557581    -0.53700
C897        C  0.12353531  0.16066730  0.89221333     0.10400
H898        H  0.15003012  0.13675939  0.95804784     0.14900
H899        H  0.11374837  0.11896693  0.88279255     0.00600
H900        H  0.19627900  0.14114897  0.89439858     0.15200
H901        H  0.14082336  0.19647531  0.90644139     0.15000
C902        C  0.15086148  0.92709940  0.15742203     0.86800
C903        C  0.13036596  0.94442222  0.14304427    -0.53500
C904        C  0.11517241  0.93094885  0.12524440     0.09700
C905        C  0.12112592  0.90120999  0.12425023     0.20600
C906        C  0.13412581  0.90538576  0.17028362    -0.54200
C907        C  0.11870166  0.89178102  0.15308439     0.09800
C908        C  0.16610553  0.91324647  0.13534995    -0.53700
C909        C  0.15079696  0.89992259  0.11789265     0.10400
H910        H  0.12892044  0.96556984  0.14566137     0.14900
H911        H  0.10853063  0.89016260  0.11018095     0.00600
H912        H  0.13306411  0.90156306  0.19126390     0.15200
H913        H  0.18746271  0.91424837  0.13347901     0.15000
C914        C  0.92329663  0.16896180  0.15038964     0.86800
C915        C  0.93995367  0.15449131  0.12926710    -0.53500
C916        C  0.92572448  0.13713526  0.11429292     0.09700
C917        C  0.89609536  0.13633274  0.12128988     0.20600
C918        C  0.90108868  0.18212706  0.13450325    -0.54200
C919        C  0.88670563  0.16521090  0.11931882     0.09800
C920        C  0.90988533  0.14679607  0.16583888    -0.53700
C921        C  0.89574015  0.12973470  0.15089221     0.10400
H922        H  0.96104639  0.15662839  0.12665353     0.14900
H923        H  0.88445388  0.12238312  0.10913240     0.00600
H924        H  0.89730656  0.20315853  0.13498754     0.15200
H925        H  0.91152024  0.14474968  0.18712212     0.15000
C926        C  0.83890066  0.85795495  0.07538353     0.86800
C927        C  0.82595917  0.87468374  0.09720222    -0.53500
C928        C  0.84328374  0.88941266  0.11164171     0.09700
C929        C  0.87221374  0.88657860  0.10209853     0.20600
C930        C  0.85381154  0.87825286  0.05846059    -0.54200
C931        C  0.87157514  0.89323837  0.07224839     0.09800
C932        C  0.86050421  0.84221438  0.08937324    -0.53700
C933        C  0.87819420  0.85687648  0.10304932     0.10400
H934        H  0.80486774  0.87622803  0.10008491     0.14900
H935        H  0.88643840  0.89845431  0.11358950     0.00600
H936        H  0.85141791  0.87950647  0.03725468     0.15200
H937        H  0.86175755  0.82088989  0.08829256     0.15000
C938        C  0.07548166  0.84562098  0.84737935     0.86800
C939        C  0.09863851  0.83325906  0.86275564    -0.53500
C940        C  0.11231680  0.85075303  0.87781169     0.09700
C941        C  0.10163222  0.87911223  0.87640252     0.20600
C942        C  0.05862871  0.85898936  0.86889903    -0.54200
C943        C  0.07206322  0.87706276  0.88385199     0.09800
C944        C  0.08780432  0.86835889  0.83191621    -0.53700
C945        C  0.10137495  0.88580211  0.84687773     0.10400
H946        H  0.10352768  0.81251348  0.86296311     0.14900
H947        H  0.11320029  0.89348538  0.88805723     0.00600
H948        H  0.03773133  0.85504865  0.87146452     0.15200
H949        H  0.08625270  0.87029371  0.81061345     0.15000
C950        C  0.84781218  0.08794459  0.83757874     0.86800
C951        C  0.86582518  0.10810273  0.82398001    -0.53500
C952        C  0.88103399  0.12250730  0.84087374     0.09700
C953        C  0.87722107  0.11488468  0.87016434     0.20600
C954        C  0.86710826  0.07088938  0.85383548    -0.54200
C955        C  0.88251036  0.08490927  0.87106527     0.09800
C956        C  0.83236355  0.10343847  0.85819604    -0.53700
C957        C  0.84734218  0.11752471  0.87534893     0.10400
H958        H  0.86627530  0.11097009  0.80275898     0.14900
H959        H  0.88944969  0.12660011  0.88392102     0.00600
H960        H  0.86915386  0.04979514  0.85170417     0.15200
H961        H  0.81097426  0.10244580  0.85955867     0.15000
O962        O  0.98228334  0.06852885  0.02025150    -0.78200
C963        C  0.05366597  0.05433195  0.97178164     0.82800
O964        O  0.95466747  0.01107832  0.94934587    -0.79300
O965        O  0.04028986  0.96920155  0.96549605    -0.80800
O966        O  0.02373399  0.99058450  0.05699588    -0.80600
O967        O  0.97770722  0.03870202  0.05211137    -0.79200
Zn968      Zn  0.99581401  0.04724990  0.98868946     1.55700
O969        O  0.05476964  0.98542657  0.02634870    -0.80600
Cd970      Cd  0.99174824  0.00445103  0.03544697     1.59700
Cd971      Cd  0.97650081  0.98720497  0.97492502     1.59600
O972        O  0.96252306  0.97664340  0.03942541    -0.80600
O973        O  0.00021551  0.01003256  0.99739771    -1.91100
Cd974      Cd  0.03790023  0.99966246  0.99201830     1.59900
O975        O  0.94994536  0.96597939  0.99866066    -0.80600
O976        O  0.06019771  0.03079820  0.97760516    -0.79200
C977        C  0.95441240  0.03599006  0.94584765     0.83300
C978        C  0.97531636  0.06219846  0.04362579     0.83000
O979        O  0.03016143  0.06268207  0.97530407    -0.78200
C980        C  0.04675163  0.98316084  0.05007336     0.83800
O981        O  0.96916041  0.05125236  0.95928255    -0.78300
C982        C  0.94788441  0.96370415  0.02369353     0.83900
C983        C  0.02398434  0.95566413  0.95205380     0.84200
O984        O  0.99912358  0.96012221  0.95294056    -0.80700
O985        O  0.20372993  0.26193248  0.98124052    -0.78200
C986        C  0.19393904  0.31081668  0.05033818     0.82800
O987        O  0.22568343  0.35889705  0.97353032    -0.79300
O988        O  0.28004143  0.32169586  0.05097200    -0.80800
O989        O  0.28635674  0.25192008  0.00684378    -0.80600
O990        O  0.24175283  0.25237407  0.96105465    -0.79200
Zn991      Zn  0.21018121  0.29886716  0.99389666     1.55700
O992        O  0.26458824  0.25804163  0.04463707    -0.80600
Cd993      Cd  0.26738876  0.27700504  0.98095104     1.59700
Cd994      Cd  0.25733093  0.33931641  0.99157601     1.59600
O995        O  0.29484894  0.29537467  0.95648435    -0.80600
O996        O  0.24654378  0.30308137  0.00082648    -1.91100
Cd997      Cd  0.25123467  0.29629510  0.03865270     1.59900
O998        O  0.28654884  0.33799045  0.96314231    -0.80600
O999        O  0.21688716  0.30560929  0.05934299    -0.79200
C1000       C  0.20577862  0.34840887  0.96204104     0.83300
C1001       C  0.21779770  0.24695567  0.96671003     0.83000
O1002       O  0.18872821  0.30838707  0.02589324    -0.78200
C1003       C  0.28064455  0.24490644  0.03033095     0.83800
O1004       O  0.19939316  0.32455347  0.96629722    -0.78300
C1005       C  0.29955577  0.31966199  0.95194859     0.83900
C1006       C  0.28594217  0.34519195  0.04442801     0.84200
O1007       O  0.27567298  0.35653371  0.02429957    -0.80700
O1008       O  0.75227289  0.49031906  0.70303037    -0.78200
C1009       C  0.80048787  0.55992070  0.69435322     0.82800
O1010       O  0.84865372  0.48194953  0.72668026    -0.79300
O1011       O  0.81225591  0.56056407  0.77960292    -0.80800
O1012       O  0.74230362  0.51349674  0.78698687    -0.80600
O1013       O  0.74213597  0.47001988  0.74068185    -0.79200
Zn1014     Zn  0.78910068  0.50325325  0.71012008     1.55700
O1015       O  0.74836975  0.55213049  0.76686168    -0.80600
Cd1016     Cd  0.76739307  0.48846098  0.76684351     1.59700
Cd1017     Cd  0.82938646  0.50126835  0.75751218     1.59600
O1018       O  0.78647258  0.46246361  0.79286762    -0.80600
O1019       O  0.79303067  0.50975461  0.74661464    -1.91100
Cd1020     Cd  0.78607962  0.54746808  0.75169584     1.59900
O1021       O  0.82853508  0.47464038  0.78831760    -0.80600
O1022       O  0.79423352  0.56874355  0.71711162    -0.79200
C1023       C  0.83839202  0.47082916  0.70651055     0.83300
C1024       C  0.73696315  0.47572167  0.71670315     0.83000
O1025       O  0.79886381  0.53547258  0.68912555    -0.78200
C1026       C  0.73530667  0.53722128  0.78244721     0.83800
O1027       O  0.81478762  0.47573533  0.69941650    -0.78300
C1028       C  0.81080715  0.46071598  0.79943939     0.83900
C1029       C  0.83639247  0.55471898  0.78363643     0.84200
O1030       O  0.84734014  0.53467516  0.77298900    -0.80700
O1031       O  0.97411705  0.19816731  0.79630854    -0.78200
C1032       C  0.03448682  0.22795878  0.73669930     0.82800
O1033       O  0.02904990  0.23585214  0.84870097    -0.79300
O1034       O  0.04508107  0.30462850  0.78521028    -0.80800
O1035       O  0.95558956  0.27519411  0.75019409    -0.80600
O1036       O  0.94183490  0.22777803  0.79857725    -0.79200
Zn1037     Zn  0.00663136  0.22004625  0.78875126     1.55700
O1038       O  0.99345691  0.29645241  0.74287404    -0.80600
Cd1039     Cd  0.96237528  0.26179315  0.78830933     1.59700
Cd1040     Cd  0.01000146  0.26718052  0.82984907     1.59600
O1041       O  0.95054185  0.29042948  0.81400419    -0.80600
O1042       O  0.00030541  0.25651392  0.79362829    -1.91100
Cd1043     Cd  0.01997148  0.27742969  0.76713090     1.59900
O1044       O  0.97730405  0.28439606  0.84854245    -0.80600
O1045       O  0.03927949  0.25217615  0.74135169    -0.79200
C1046       C  0.03953925  0.21553292  0.83805419     0.83300
C1047       C  0.95012895  0.20418005  0.80090476     0.83000
O1048       O  0.02054193  0.21406690  0.75236758    -0.78200
C1049       C  0.96973242  0.29093970  0.73651094     0.83800
O1050       O  0.03385308  0.20868973  0.81460254    -0.78300
C1051       C  0.95705362  0.29507438  0.83780662     0.83900
C1052       C  0.04963111  0.30927566  0.80956958     0.84200
O1053       O  0.03805801  0.29658513  0.82792347    -0.80700
C1054       C  0.83996903  0.35869336  0.91974821     0.86800
C1055       C  0.85533637  0.37888197  0.93646063    -0.53500
C1056       C  0.87368937  0.39311002  0.92254876     0.09700
C1057       C  0.87390466  0.38648378  0.89276005     0.20600
C1058       C  0.82738698  0.37560732  0.89785199    -0.54200
C1059       C  0.84501208  0.39018853  0.88349768     0.09800
C1060       C  0.86122314  0.34243887  0.90591505    -0.53700
C1061       C  0.87906503  0.35670655  0.89202667     0.10400
H1062       H  0.85262480  0.38101587  0.95755973     0.14900
H1063       H  0.88835237  0.39770612  0.88090042     0.00600
H1064       H  0.80627350  0.37702263  0.89472133     0.15200
H1065       H  0.86226544  0.32111461  0.90732865     0.15000
C1066       C  0.15205486  0.42902632  0.83671867     0.86800
C1067       C  0.13562448  0.40687401  0.82414766    -0.53500
C1068       C  0.12015911  0.39334537  0.84163254     0.09700
C1069       C  0.12289829  0.40315448  0.87042221     0.20600
C1070       C  0.13134632  0.44616429  0.85091098    -0.54200
C1071       C  0.11650815  0.43268445  0.86886899     0.09800
C1072       C  0.16761692  0.41547015  0.85874657    -0.53700
C1073       C  0.15264668  0.40237679  0.87673660     0.10400
H1074       H  0.13559656  0.40230156  0.80332474     0.14900
H1075       H  0.11037951  0.39253981  0.88491864     0.00600
H1076       H  0.12941312  0.46724925  0.84802209     0.15200
H1077       H  0.18900643  0.41639014  0.85993681     0.15000
C1078       C  0.92112580  0.67000545  0.84620840     0.86800
C1079       C  0.89889718  0.68246622  0.86271237    -0.53500
C1080       C  0.88474205  0.66483545  0.87723374     0.09700
C1081       C  0.89425982  0.63617416  0.87435679     0.20600
C1082       C  0.93791245  0.65499306  0.86668354    -0.54200
C1083       C  0.92390703  0.63697194  0.88111562     0.09800
C1084       C  0.90741690  0.64855058  0.83007912    -0.53700
C1085       C  0.89355125  0.63082682  0.84457185     0.10400
H1086       H  0.89501435  0.70334573  0.86418757     0.14900
H1087       H  0.88286573  0.62174612  0.88625146     0.00600
H1088       H  0.95909865  0.65748311  0.86873247     0.15200
H1089       H  0.90854266  0.64753843  0.80868982     0.15000
C1090       C  0.07670594  0.34770525  0.15114547     0.86800
C1091       C  0.05943294  0.36391085  0.13172003    -0.53500
C1092       C  0.07355015  0.38131092  0.11635204     0.09700
C1093       C  0.10357913  0.38027906  0.12167339     0.20600
C1094       C  0.09713028  0.33427112  0.13336039    -0.54200
C1095       C  0.11149000  0.35118682  0.11831056     0.09800
C1096       C  0.09209446  0.36843429  0.16652873    -0.53700
C1097       C  0.10567274  0.38581851  0.15140494     0.10400
H1098       H  0.03814263  0.36249011  0.13057697     0.14900
H1099       H  0.11566207  0.39356767  0.10923572     0.00600
H1100       H  0.10022248  0.31312611  0.13285884     0.15200
H1101       H  0.09177362  0.36952923  0.18793694     0.15000
C1102       C  0.85160789  0.58518522  0.16038072     0.86800
C1103       C  0.87090827  0.56813751  0.14405658    -0.53500
C1104       C  0.88578490  0.58216950  0.12627228     0.09700
C1105       C  0.87977863  0.61201196  0.12664101     0.20600
C1106       C  0.86957415  0.60584758  0.17310791    -0.54200
C1107       C  0.88388116  0.62050792  0.15564226     0.09800
C1108       C  0.83536469  0.59999381  0.13971274    -0.53700
C1109       C  0.84985009  0.61355001  0.12171945     0.10400
H1110       H  0.87232087  0.54697863  0.14578191     0.14900
H1111       H  0.89139440  0.62378581  0.11235448     0.00600
H1112       H  0.87126657  0.60809282  0.19431162     0.15200
H1113       H  0.81393289  0.59921297  0.13902453     0.15000
C1114       C  0.16186268  0.65951850  0.07677349     0.86800
C1115       C  0.17477425  0.64222795  0.09802453    -0.53500
C1116       C  0.15739579  0.62782529  0.11271027     0.09700
C1117       C  0.12831981  0.63145595  0.10407392     0.20600
C1118       C  0.14605630  0.63963826  0.06007174    -0.54200
C1119       C  0.12816179  0.62518799  0.07426943     0.09800
C1120       C  0.14087550  0.67571242  0.09115918    -0.53700
C1121       C  0.12331600  0.66124011  0.10521913     0.10400
H1122       H  0.19596743  0.64069149  0.10071282     0.14900
H1123       H  0.11394624  0.61991436  0.11586598     0.00600
H1124       H  0.14825087  0.63743047  0.03891395     0.15200
H1125       H  0.13976918  0.69704701  0.09001537     0.15000
O1126       O  0.02945446  0.56374599  0.01967731    -0.78200
C1127       C  0.97459425  0.56139783  0.95051091     0.82800
O1128       O  0.95769716  0.50996215  0.04685839    -0.79300
O1129       O  0.96408307  0.47572244  0.95601175    -0.80800
O1130       O  0.05633463  0.48655428  0.96808348    -0.80600
O1131       O  0.06066877  0.53307019  0.01600773    -0.79200
Zn1132     Zn  0.99589617  0.54717103  0.00534143     1.55700
O1133       O  0.02469053  0.49057156  0.93792202    -0.80600
Cd1134     Cd  0.03948837  0.50084316  0.00258478     1.59700
Cd1135     Cd  0.97872865  0.48670819  0.02009907     1.59600
O1136       O  0.04314979  0.47183288  0.03110009    -0.80600
O1137       O  0.00148389  0.51008104  0.99716978    -1.91100
Cd1138     Cd  0.99261225  0.50418124  0.95929489     1.59900
O1139       O  0.00202790  0.45996690  0.04148326    -0.80600
O1140       O  0.97739295  0.53792472  0.94210027    -0.79200
C1141       C  0.95560605  0.53494249  0.04874341     0.83300
C1142       C  0.05327594  0.55610329  0.02269281     0.83000
O1143       O  0.98181281  0.56783259  0.97374167    -0.78200
C1144       C  0.04801837  0.48381286  0.94448181     0.83800
O1145       O  0.96858801  0.55043613  0.03384971    -0.78300
C1146       C  0.02701591  0.45747806  0.04400241     0.83900
C1147       C  0.94959841  0.46291657  0.97202494     0.84200
O1148       O  0.95178534  0.46542042  0.99701135    -0.80700
O1149       O  0.52622691  0.81575803  0.30010215    -0.94200
C1150       C  0.46755181  0.78606179  0.23832695     0.82800
O1151       O  0.47419375  0.77689879  0.35093985    -0.79300
O1152       O  0.45682891  0.70933721  0.28676233    -0.80800
O1153       O  0.54586966  0.74138941  0.25074000    -0.80600
O1154       O  0.56026254  0.78835731  0.29910089    -0.79200
Zn1155     Zn  0.49470915  0.79347932  0.29082421     1.55700
O1156       O  0.50843240  0.71930783  0.24366321    -0.80600
Cd1157     Cd  0.54007905  0.75377797  0.28915796     1.59700
Cd1158     Cd  0.49309841  0.74565241  0.33136555     1.59600
O1159       O  0.55318297  0.72476080  0.31389011    -0.80600
O1160       O  0.50198109  0.75735161  0.29530200    -1.91100
Cd1161     Cd  0.48187991  0.73690657  0.26886493     1.59900
O1162       O  0.52616712  0.72767365  0.34857475    -0.80600
O1163       O  0.46221533  0.76206944  0.24344869    -0.79200
C1164       C  0.46307491  0.79709499  0.34054171     0.83300
C1165       C  0.55070612  0.81119431  0.30350426     0.83000
O1166       O  0.48153486  0.79994849  0.25396129    -0.78200
C1167       C  0.53177853  0.72584653  0.23682002     0.83800
O1168       O  0.46745885  0.80368590  0.31672750    -0.78300
C1169       C  0.54670028  0.71816963  0.33727137     0.83900
C1170       C  0.45367513  0.70336685  0.31107870     0.84200
O1171       O  0.46590064  0.71545186  0.32937634    -0.80700
O1172       O  0.51636415  0.20986295  0.74805656    -0.78200
C1173       C  0.44635478  0.20250043  0.70004663     0.82800
O1174       O  0.52365974  0.23343075  0.65178593    -0.79300
O1175       O  0.44715995  0.28858340  0.69006780    -0.80800
O1176       O  0.49332862  0.29154926  0.76066497    -0.80600
O1177       O  0.53800712  0.24678026  0.75786325    -0.79200
Zn1178     Zn  0.50320912  0.21730488  0.71166212     1.55700
O1179       O  0.45475599  0.27172317  0.75323986    -0.80600
Cd1180     Cd  0.51841046  0.27348453  0.73418028     1.59700
Cd1181     Cd  0.50641621  0.26515681  0.67184559     1.59600
O1182       O  0.54371844  0.30067610  0.71618262    -0.80600
O1183       O  0.49739079  0.25388195  0.70790618    -1.91100
Cd1184     Cd  0.45970498  0.25927963  0.71471579     1.59900
O1185       O  0.53552421  0.29355045  0.67358972    -0.80600
O1186       O  0.43815663  0.22575577  0.70484207    -0.79200
C1187       C  0.53456800  0.21297574  0.66184096     0.83300
C1188       C  0.53167404  0.22300872  0.76300088     0.83000
O1189       O  0.47061258  0.19653783  0.70285619    -0.78200
C1190       C  0.46964875  0.28626323  0.76741347     0.83800
O1191       O  0.53015412  0.20614387  0.68558264    -0.78300
C1192       C  0.54783192  0.30570464  0.69180747     0.83900
C1193       C  0.45354249  0.29449845  0.66649828     0.84200
O1194       O  0.47373281  0.28429891  0.65514857    -0.80700
O1195       O  0.69980586  0.98121139  0.80974022    -0.78200
C1196       C  0.75963880  0.04189272  0.78138715     0.82800
O1197       O  0.64737170  0.03363763  0.77429966    -0.79300
O1198       O  0.70952093  0.05412884  0.70541107    -0.80800
O1199       O  0.74834883  0.96518972  0.73306601    -0.80600
O1200       O  0.70106646  0.94822694  0.78123586    -0.79200
Zn1201     Zn  0.70834886  0.01335882  0.78857006     1.55700
O1202       O  0.75388402  0.00357407  0.71211717    -0.80600
Cd1203     Cd  0.71009099  0.96975393  0.74702574     1.59700
Cd1204     Cd  0.66655941  0.01601815  0.74202742     1.59600
O1205       O  0.68462987  0.95748251  0.71813903    -0.80600
O1206       O  0.70320538  0.00742678  0.75223939    -1.91100
Cd1207     Cd  0.72871671  0.02883825  0.73190337     1.59900
O1208       O  0.64924058  0.98306759  0.72435911    -0.80600
O1209       O  0.75365733  0.04837450  0.75779236    -0.79200
C1210       C  0.65817836  0.04413139  0.79458503     0.83300
C1211       C  0.69666522  0.95696997  0.80444301     0.83000
O1212       O  0.74519794  0.02647427  0.79503120    -0.78200
C1213       C  0.76118396  0.98006032  0.71725126     0.83800
O1214       O  0.68221177  0.03970804  0.80039577    -0.78300
C1215       C  0.66070820  0.96353022  0.71322274     0.83900
C1216       C  0.68501721  0.05672760  0.69987165     0.84200
O1217       O  0.66725856  0.04377894  0.71211058    -0.80700
C1218       C  0.34548669  0.08686516  0.66132214     0.86800
C1219       C  0.36626119  0.07023343  0.64654284    -0.53500
C1220       C  0.38098911  0.08432213  0.62885581     0.09700
C1221       C  0.37445761  0.11393907  0.62839158     0.20600
C1222       C  0.36194926  0.10861530  0.67452091    -0.54200
C1223       C  0.37693584  0.12281199  0.65735293     0.09800
C1224       C  0.32980179  0.10085138  0.63964056    -0.53700
C1225       C  0.34472493  0.11484473  0.62233420     0.10400
H1226       H  0.36842478  0.04911665  0.64892493     0.14900
H1227       H  0.38685533  0.12534995  0.61439789     0.00600
H1228       H  0.36291886  0.11203704  0.69559688     0.15200
H1229       H  0.30845286  0.09947100  0.63795816     0.15000
C1230       C  0.57834360  0.84838718  0.64938732     0.86800
C1231       C  0.56126430  0.86326011  0.62904521    -0.53500
C1232       C  0.57503630  0.88115714  0.61414839     0.09700
C1233       C  0.60483024  0.88193275  0.62052340     0.20600
C1234       C  0.60028594  0.83575386  0.63268472    -0.54200
C1235       C  0.61427099  0.85320344  0.61779560     0.09800
C1236       C  0.59230984  0.86996759  0.66509198    -0.53700
C1237       C  0.60575997  0.88768795  0.65024764     0.10400
H1238       H  0.54003561  0.86077579  0.62749381     0.14900
H1239       H  0.61630654  0.89607731  0.60838409     0.00600
H1240       H  0.60418848  0.81487295  0.63143113     0.15200
H1241       H  0.59139543  0.87127786  0.68647540     0.15000
C1242       C  0.65729637  0.15880266  0.57836603     0.86800
C1243       C  0.66982465  0.14142979  0.59982198    -0.53500
C1244       C  0.65230106  0.12656217  0.61411513     0.09700
C1245       C  0.62347969  0.12947824  0.60385847     0.20600
C1246       C  0.64258215  0.13892002  0.56070598    -0.54200
C1247       C  0.62473014  0.12356697  0.57391789     0.09800
C1248       C  0.63550461  0.17419710  0.59231020    -0.53700
C1249       C  0.61746300  0.15914788  0.60515685     0.10400
H1250       H  0.69099434  0.14060763  0.60263194     0.14900
H1251       H  0.60847086  0.11768370  0.61445110     0.00600
H1252       H  0.64591583  0.13677850  0.53970631     0.15200
H1253       H  0.63448660  0.19554915  0.59188746     0.15000
C1254       C  0.33830280  0.85324411  0.41991012     0.86800
C1255       C  0.35268077  0.87384404  0.43715181    -0.53500
C1256       C  0.37079188  0.88853585  0.42362139     0.09700
C1257       C  0.37248605  0.88187134  0.39407542     0.20600
C1258       C  0.32605929  0.86973323  0.39768578    -0.54200
C1259       C  0.34369706  0.88483515  0.38393569     0.09800
C1260       C  0.36031064  0.83747240  0.40673274    -0.53700
C1261       C  0.37861377  0.85211194  0.39373283     0.10400
H1262       H  0.34941923  0.87656283  0.45810086     0.14900
H1263       H  0.38717995  0.89412595  0.38345289     0.00600
H1264       H  0.30514730  0.86934640  0.39321084     0.15200
H1265       H  0.36122652  0.81614691  0.40782670     0.15000
C1266       C  0.64822699  0.93224655  0.33748621     0.86800
C1267       C  0.63237735  0.90949592  0.32504716    -0.53500
C1268       C  0.61720235  0.89579599  0.34250521     0.09700
C1269       C  0.61892028  0.90618842  0.37105535     0.20600
C1270       C  0.62707280  0.94923715  0.35137325    -0.54200
C1271       C  0.61178605  0.93575997  0.36931911     0.09800
C1272       C  0.66358610  0.91935753  0.35999505    -0.53700
C1273       C  0.64858046  0.90603707  0.37771080     0.10400
H1274       H  0.63213585  0.90460248  0.30429201     0.14900
H1275       H  0.60706546  0.89481447  0.38543670     0.00600
H1276       H  0.62497720  0.97018832  0.34778835     0.15200
H1277       H  0.68493889  0.92065878  0.36170301     0.15000
C1278       C  0.42085820  0.16608480  0.34377472     0.86800
C1279       C  0.39895778  0.17908746  0.36020904    -0.53500
C1280       C  0.38434038  0.16189984  0.37469895     0.09700
C1281       C  0.39322365  0.13303760  0.37200174     0.20600
C1282       C  0.43727565  0.15079181  0.36437382    -0.54200
C1283       C  0.42292006  0.13301787  0.37891234     0.09800
C1284       C  0.40686829  0.14482835  0.32768340    -0.53700
C1285       C  0.39279558  0.12729525  0.34225235     0.10400
H1286       H  0.39583446  0.20010486  0.36179460     0.14900
H1287       H  0.38102450  0.11938107  0.38394276     0.00600
H1288       H  0.45847170  0.15305245  0.36642988     0.15200
H1289       H  0.40828945  0.14361642  0.30632932     0.15000
O1290       O  0.51602309  0.94953151  0.52162330    -0.78200
C1291       C  0.44333933  0.96071993  0.47451079     0.82800
O1292       O  0.54059718  0.00840136  0.45060555    -0.79300
O1293       O  0.45352011  0.04448978  0.46544885    -0.80800
O1294       O  0.47278632  0.02717299  0.55885651    -0.80600
O1295       O  0.51925519  0.97895647  0.55398076    -0.79200
Zn1296     Zn  0.50118907  0.97035673  0.49040594     1.55700
O1297       O  0.44089966  0.03102468  0.52881851    -0.80600
Cd1298     Cd  0.50474180  0.01304313  0.53729669     1.59700
Cd1299     Cd  0.51823272  0.03108664  0.47689640     1.59600
O1300       O  0.53486832  0.04008750  0.54073943    -0.80600
O1301       O  0.49555947  0.00725708  0.49943303    -1.91100
Cd1302     Cd  0.45734072  0.01606650  0.49431576     1.59900
O1303       O  0.54412474  0.05348920  0.49991576    -0.80600
O1304       O  0.43585677  0.98376016  0.48110211    -0.79200
C1305       C  0.54142106  0.98356565  0.44676755     0.83300
C1306       C  0.52268075  0.95576868  0.54508509     0.83000
O1307       O  0.46731473  0.95350292  0.47733776    -0.78200
C1308       C  0.44941178  0.03392992  0.55234370     0.83800
O1309       O  0.52744100  0.96777663  0.46048080    -0.78300
C1310       C  0.54818549  0.05418259  0.52476237     0.83900
C1311       C  0.46955169  0.05879944  0.45241245     0.84200
O1312       O  0.49455089  0.05678733  0.45504255    -0.80700
C1313       C  0.45731508  0.12116476  0.41285154    -0.21000
C1314       C  0.43516677  0.11396833  0.39771738    -0.09100
C1315       C  0.42521722  0.08818144  0.40026965     0.29800
C1316       C  0.43647208  0.07061317  0.41823226    -0.21000
C1317       C  0.45843404  0.07786317  0.43338080    -0.09100
C1318       C  0.46903228  0.10322744  0.43033586     0.29800
F1319       F  0.49011776  0.11095832  0.44488657    -0.19600
H1320       H  0.46541765  0.14081449  0.41141111     0.18200
H1321       H  0.42833048  0.05097133  0.41988439     0.18200
F1322       F  0.40536528  0.07933346  0.38468761    -0.19600
C1323       C  0.55360219  0.94713497  0.41596657    -0.21000
C1324       C  0.55882571  0.97239146  0.42588954    -0.09100
C1325       C  0.58086771  0.98611880  0.41602830     0.29800
C1326       C  0.59750846  0.97442607  0.39721628    -0.21000
C1327       C  0.59255882  0.94886621  0.38764521    -0.09100
C1328       C  0.57005113  0.93554470  0.39710529     0.29800
F1329       F  0.56347093  0.91137430  0.38808359    -0.19600
H1330       H  0.53658334  0.93618823  0.42282105     0.18200
H1331       H  0.61483097  0.98514403  0.39083774     0.18200
F1332       F  0.58700604  0.01039869  0.42527764    -0.19600
C1333       C  0.37932949  0.92941279  0.44991140    -0.21000
C1334       C  0.38900949  0.90712738  0.43678828    -0.09100
C1335       C  0.41627394  0.90228818  0.43662255     0.29800
C1336       C  0.43357687  0.91944261  0.44944368    -0.21000
C1337       C  0.42416121  0.94209746  0.46234758    -0.09100
C1338       C  0.39669605  0.94697344  0.46233450     0.29800
F1339       F  0.38653984  0.96860619  0.47429524    -0.19600
H1340       H  0.35831721  0.93338550  0.45020370     0.18200
H1341       H  0.45450647  0.91511391  0.44889845     0.18200
F1342       F  0.42617314  0.88062573  0.42450474    -0.19600
C1343       C  0.59489713  0.11185814  0.53591205    -0.21000
C1344       C  0.60658425  0.10491916  0.56016081    -0.09100
C1345       C  0.60006863  0.08050760  0.57140830     0.29800
C1346       C  0.58129120  0.06423173  0.55961706    -0.21000
C1347       C  0.56901114  0.07145159  0.53586362    -0.09100
C1348       C  0.57645898  0.09522736  0.52372128     0.29800
F1349       F  0.56518334  0.10292529  0.50069623    -0.19600
H1350       H  0.59949472  0.13053198  0.52669969     0.18200
H1351       H  0.57652194  0.04569032  0.56903904     0.18200
F1352       F  0.61245191  0.07176938  0.59331666    -0.19600
C1353       C  0.54204977  0.89143741  0.57847751    -0.21000
C1354       C  0.56198134  0.89995634  0.59577976    -0.09100
C1355       C  0.56870793  0.92680846  0.59614046     0.29800
C1356       C  0.55559717  0.94465325  0.57976019    -0.21000
C1357       C  0.53581871  0.93618549  0.56232955    -0.09100
C1358       C  0.52924544  0.90931073  0.56166107     0.29800
F1359       F  0.50996244  0.90046700  0.54536433    -0.19600
H1360       H  0.53648850  0.87087780  0.57789943     0.18200
H1361       H  0.56110040  0.96523168  0.58057654     0.18200
F1362       F  0.58725857  0.93611981  0.61301070    -0.19600
C1363       C  0.41942121  0.05514365  0.61800567    -0.21000
C1364       C  0.39886381  0.07161379  0.60953651    -0.09100
C1365       C  0.39474293  0.07516746  0.58237296     0.29800
C1366       C  0.41091844  0.06244654  0.56403806    -0.21000
C1367       C  0.43185188  0.04625767  0.57234098    -0.09100
C1368       C  0.43601815  0.04279126  0.59964224     0.29800
F1369       F  0.45582548  0.02718864  0.60863257    -0.19600
H1370       H  0.42275344  0.05206137  0.63888303     0.18200
H1371       H  0.40722917  0.06558171  0.54323143     0.18200
F1372       F  0.37457577  0.09034485  0.57347644    -0.19600
C1373       C  0.69199646  0.09686379  0.67165905    -0.21000
C1374       C  0.67664084  0.07492030  0.67842890    -0.09100
C1375       C  0.65286004  0.07071746  0.66473335     0.29800
C1376       C  0.64492876  0.08785830  0.64464633    -0.21000
C1377       C  0.66056553  0.10940479  0.63700544    -0.09100
C1378       C  0.68398580  0.11413858  0.65156764     0.29800
F1379       F  0.69871372  0.13603667  0.64751063    -0.19600
H1380       H  0.71001844  0.10101695  0.68235556     0.18200
H1381       H  0.62643310  0.08382709  0.63516690     0.18200
F1382       F  0.63742338  0.04957895  0.67022765    -0.19600
C1383       C  0.61861286  0.94424162  0.69655999    -0.21000
C1384       C  0.64605632  0.94693401  0.69430568    -0.09100
C1385       C  0.65952910  0.93253117  0.67464181     0.29800
C1386       C  0.64593921  0.91451514  0.65885622    -0.21000
C1387       C  0.61891462  0.91042128  0.66264903    -0.09100
C1388       C  0.60513756  0.92603269  0.68099144     0.29800
F1389       F  0.57873777  0.92297628  0.68446568    -0.19600
H1390       H  0.60775624  0.95530995  0.71124113     0.18200
H1391       H  0.65676736  0.90272443  0.64471935     0.18200
F1392       F  0.68592815  0.93542646  0.67103419    -0.19600
C1393       C  0.38581498  0.16930414  0.67018744    -0.21000
C1394       C  0.39498647  0.14351646  0.66681229    -0.09100
C1395       C  0.42051310  0.13693953  0.67514847     0.29800
C1396       C  0.43680908  0.15606075  0.68643138    -0.21000
C1397       C  0.42789887  0.18212729  0.68978492    -0.09100
C1398       C  0.40206700  0.18853522  0.68150505     0.29800
F1399       F  0.39253827  0.21337000  0.68399298    -0.19600
H1400       H  0.36592687  0.17446143  0.66425929     0.18200
H1401       H  0.45650356  0.15039412  0.69250665     0.18200
F1402       F  0.42950979  0.11189042  0.67271413    -0.19600
C1403       C  0.56069816  0.20535328  0.62069545    -0.21000
C1404       C  0.55354488  0.19715115  0.64613436    -0.09100
C1405       C  0.56598398  0.17463697  0.65691103     0.29800
C1406       C  0.58604289  0.16175087  0.64304204    -0.21000
C1407       C  0.59411271  0.17093576  0.61829554    -0.09100
C1408       C  0.58064377  0.19238090  0.60683795     0.29800
F1409       F  0.58677311  0.20093393  0.58221590    -0.19600
H1410       H  0.55129004  0.22225422  0.61167473     0.18200
H1411       H  0.59601038  0.14522629  0.65217435     0.18200
F1412       F  0.55945830  0.16541646  0.68119005    -0.19600
C1413       C  0.59559271  0.83091631  0.31201521    -0.21000
C1414       C  0.56791720  0.83272716  0.31368312    -0.09100
C1415       C  0.55681766  0.85508968  0.32599186     0.29800
C1416       C  0.57299068  0.87511267  0.33584430    -0.21000
C1417       C  0.60048527  0.87337760  0.33390534    -0.09100
C1418       C  0.61172581  0.85111537  0.32182314     0.29800
F1419       F  0.63833420  0.84894950  0.31949899    -0.19600
H1420       H  0.60476937  0.81398397  0.30285356     0.18200
H1421       H  0.56391780  0.89244014  0.34420005     0.18200
F1422       F  0.53028487  0.85764819  0.32878688    -0.19600
C1423       C  0.43521778  0.80463027  0.38064590    -0.21000
C1424       C  0.44395109  0.81312487  0.35582223    -0.09100
C1425       C  0.43301183  0.83638655  0.34506608     0.29800
C1426       C  0.41251741  0.84948065  0.35798831    -0.21000
C1427       C  0.40253201  0.83991921  0.38185984    -0.09100
C1428       C  0.41491803  0.81795436  0.39369070     0.29800
F1429       F  0.40753335  0.80928903  0.41792366    -0.19600
H1430       H  0.44364660  0.78726855  0.38975468     0.18200
H1431       H  0.40384323  0.86654714  0.34870250     0.18200
F1432       F  0.44153683  0.84627293  0.32168263    -0.19600
C1433       C  0.06410273  0.59150700  0.05500670    -0.21000
C1434       C  0.07256619  0.57404314  0.03527454    -0.09100
C1435       C  0.09955784  0.57321899  0.02871812     0.29800
C1436       C  0.11755295  0.58972470  0.04157050    -0.21000
C1437       C  0.10910370  0.60697120  0.06151656    -0.09100
C1438       C  0.08214998  0.60764222  0.06818806     0.29800
F1439       F  0.07301411  0.62450161  0.08681007    -0.19600
H1440       H  0.04346171  0.59238914  0.06053913     0.18200
H1441       H  0.13819134  0.58892596  0.03603193     0.18200
F1442       F  0.10847264  0.55688761  0.00951116    -0.19600
C1443       C  0.93477410  0.53504678  0.09356814    -0.21000
C1444       C  0.93764961  0.54658392  0.06857992    -0.09100
C1445       C  0.92372781  0.56984443  0.06287804     0.29800
C1446       C  0.90694641  0.58100975  0.08165092    -0.21000
C1447       C  0.90413152  0.56974546  0.10683153    -0.09100
C1448       C  0.91853842  0.54666624  0.11270329     0.29800
F1449       F  0.91774629  0.53573214  0.13710792    -0.19600
H1450       H  0.94570333  0.51739699  0.09853410     0.18200
H1451       H  0.89576388  0.59829445  0.07611135     0.18200
F1452       F  0.92575375  0.58145398  0.03883059    -0.19600
C1453       C  0.03768297  0.39489096  0.08429204    -0.21000
C1454       C  0.06109075  0.40090755  0.09803428    -0.09100
C1455       C  0.07236426  0.42603826  0.09431669     0.29800
C1456       C  0.06122702  0.44393166  0.07656953    -0.21000
C1457       C  0.03803468  0.43787016  0.06276330    -0.09100
C1458       C  0.02609531  0.41324038  0.06704124     0.29800
F1459       F  0.00373718  0.40656513  0.05393410    -0.19600
H1460       H  0.02847583  0.37581682  0.08659242     0.18200
H1461       H  0.07048966  0.46298380  0.07409204     0.18200
F1462       F  0.09349867  0.43407207  0.10859526    -0.19600
C1463       C  0.95224962  0.62662749  0.92036771    -0.21000
C1464       C  0.93662444  0.61791216  0.89927632    -0.09100
C1465       C  0.93361575  0.59076867  0.89515812     0.29800
C1466       C  0.94631887  0.57269946  0.91165457    -0.21000
C1467       C  0.96189555  0.58123089  0.93296778    -0.09100
C1468       C  0.96450670  0.60851606  0.93733276     0.29800
F1469       F  0.97915896  0.61774866  0.95770874    -0.19600
H1470       H  0.95472501  0.64750340  0.92383854     0.18200
H1471       H  0.94370487  0.55190104  0.90784629     0.18200
F1472       F  0.91899367  0.58166145  0.87469369    -0.19600
C1473       C  0.07493626  0.45691545  0.87955816    -0.21000
C1474       C  0.09895183  0.44604168  0.88781785    -0.09100
C1475       C  0.10652675  0.44827989  0.91430468     0.29800
C1476       C  0.09015444  0.46107409  0.93237537    -0.21000
C1477       C  0.06573256  0.47167951  0.92446492    -0.09100
C1478       C  0.05828141  0.46946592  0.89769333     0.29800
F1479       F  0.03491914  0.47923129  0.88896043    -0.19600
H1480       H  0.06895648  0.45537303  0.85910923     0.18200
H1481       H  0.09654212  0.46236639  0.95270903     0.18200
F1482       F  0.12999472  0.43842676  0.92263846    -0.19600
C1483       C  0.93710534  0.43020737  0.93799094    -0.21000
C1484       C  0.93016389  0.44445130  0.96063069    -0.09100
C1485       C  0.90461221  0.44161160  0.97101978     0.29800
C1486       C  0.88619872  0.42531474  0.95837063    -0.21000
C1487       C  0.89310318  0.41109212  0.93550429    -0.09100
C1488       C  0.91909137  0.41340028  0.92580986     0.29800
F1489       F  0.92774850  0.39865312  0.90527957    -0.19600
H1490       H  0.95685328  0.43174692  0.92990884     0.18200
H1491       H  0.86642200  0.42409213  0.96636274     0.18200
F1492       F  0.89714778  0.45528834  0.99275646    -0.19600
C1493       C  0.07119272  0.35285613  0.80143039    -0.21000
C1494       C  0.06845474  0.33027168  0.81713575    -0.09100
C1495       C  0.08276248  0.32863128  0.84089296     0.29800
C1496       C  0.09930793  0.34921651  0.84872927    -0.21000
C1497       C  0.10199475  0.37187643  0.83316177    -0.09100
C1498       C  0.08754470  0.37358368  0.80941491     0.29800
F1499       F  0.08832278  0.39567323  0.79436953    -0.19600
H1500       H  0.06001473  0.35482797  0.78333897     0.18200
H1501       H  0.11028278  0.34718554  0.86677829     0.18200
F1502       F  0.08116777  0.30688975  0.85639027    -0.19600
C1503       C  0.92636905  0.33333146  0.83949881    -0.21000
C1504       C  0.94005823  0.31323865  0.85291489    -0.09100
C1505       C  0.93553379  0.30960489  0.87998591     0.29800
C1506       C  0.91645941  0.32475562  0.89288061    -0.21000
C1507       C  0.90187235  0.34391805  0.87910263    -0.09100
C1508       C  0.90757222  0.34871990  0.85250360     0.29800
F1509       F  0.89373057  0.36695693  0.83864794    -0.19600
H1510       H  0.92970643  0.33663211  0.81865115     0.18200
H1511       H  0.91244025  0.32095895  0.91352426     0.18200
F1512       F  0.94818640  0.29032001  0.89355084    -0.19600
C1513       C  0.84149741  0.44857060  0.83607625    -0.21000
C1514       C  0.81917985  0.44245105  0.82078374    -0.09100
C1515       C  0.80560419  0.41891482  0.82602151     0.29800
C1516       C  0.81436886  0.40192303  0.84601212    -0.21000
C1517       C  0.83654728  0.40818009  0.86161172    -0.09100
C1518       C  0.84993411  0.43192127  0.85641698     0.29800
F1519       F  0.87045730  0.43984757  0.87161888    -0.19600
H1520       H  0.85216212  0.46673073  0.83268901     0.18200
H1521       H  0.80381265  0.38367154  0.84910537     0.18200
F1522       F  0.78429583  0.41195016  0.81140118    -0.19600
C1523       C  0.89269741  0.59407001  0.81228678    -0.21000
C1524       C  0.87966218  0.60873097  0.83183668    -0.09100
C1525       C  0.85287760  0.60399369  0.83688583     0.29800
C1526       C  0.83904027  0.58589019  0.82145773    -0.21000
C1527       C  0.85184061  0.57197362  0.80114077    -0.09100
C1528       C  0.87900073  0.57571696  0.79713114     0.29800
F1529       F  0.89197748  0.56283977  0.77759104    -0.19600
H1530       H  0.91342771  0.59743303  0.80824639     0.18200
H1531       H  0.81814514  0.58310714  0.82506026     0.18200
F1532       F  0.83972249  0.61801646  0.85549568    -0.19600
C1533       C  0.15354851  0.32635453  0.11170741    -0.21000
C1534       C  0.13316474  0.34185807  0.10110859    -0.09100
C1535       C  0.13297693  0.34722730  0.07400473     0.29800
C1536       C  0.15256519  0.33666541  0.05766644    -0.21000
C1537       C  0.17304127  0.32104615  0.06814391    -0.09100
C1538       C  0.17354767  0.31631106  0.09549738     0.29800
F1539       F  0.19299817  0.30158184  0.10652223    -0.19600
H1540       H  0.15397218  0.32208948  0.13264304     0.18200
H1541       H  0.15184544  0.34096197  0.03675144     0.18200
F1542       F  0.11337220  0.36193117  0.06321066    -0.19600
C1543       C  0.15480702  0.36597742  0.90991177    -0.21000
C1544       C  0.16442853  0.39007099  0.90062141    -0.09100
C1545       C  0.18594275  0.40182386  0.91377731     0.29800
C1546       C  0.19868836  0.38866396  0.93437840    -0.21000
C1547       C  0.19013944  0.36369010  0.94254116    -0.09100
C1548       C  0.16743837  0.35283948  0.93058314     0.29800
F1549       F  0.15767856  0.32917356  0.93827025    -0.19600
H1550       H  0.13810978  0.35675880  0.90063513     0.18200
H1551       H  0.21567807  0.39781089  0.94348985     0.18200
F1552       F  0.19467059  0.42612362  0.90688555    -0.19600
C1553       C  0.91593441  0.18825553  0.83259260    -0.21000
C1554       C  0.93196284  0.18347624  0.81047203    -0.09100
C1555       C  0.93166831  0.15838368  0.79889479     0.29800
C1556       C  0.91522659  0.13866387  0.80900255    -0.21000
C1557       C  0.89927472  0.14334878  0.83123289    -0.09100
C1558       C  0.89997701  0.16831001  0.84313653     0.29800
F1559       F  0.88467695  0.17370818  0.86443409    -0.19600
H1560       H  0.91618448  0.20735591  0.84204711     0.18200
H1561       H  0.91508683  0.11957443  0.79953331     0.18200
F1562       F  0.94687045  0.15310421  0.77748997    -0.19600
C1563       C  0.89534254  0.04761731  0.90102611    -0.21000
C1564       C  0.90154546  0.07205942  0.88950427    -0.09100
C1565       C  0.92569872  0.08403866  0.89607699     0.29800
C1566       C  0.94277001  0.07211808  0.91425081    -0.21000
C1567       C  0.93645005  0.04779187  0.92590989    -0.09100
C1568       C  0.91259744  0.03550719  0.91887637     0.29800
F1569       F  0.90542127  0.01227070  0.92997052    -0.19600
H1570       H  0.87676458  0.03804706  0.89666936     0.18200
H1571       H  0.96117259  0.08184973  0.91901890     0.18200
F1572       F  0.93329074  0.10685877  0.88442701    -0.19600
C1573       C  0.82165180  0.04757008  0.82248540    -0.21000
C1574       C  0.82824625  0.07431818  0.81924587    -0.09100
C1575       C  0.81235716  0.08979095  0.80225936     0.29800
C1576       C  0.79084059  0.07881001  0.78908841    -0.21000
C1577       C  0.78386756  0.05253494  0.79333164    -0.09100
C1578       C  0.79965097  0.03685038  0.80982270     0.29800
F1579       F  0.79355447  0.01118245  0.81405235    -0.19600
H1580       H  0.83228290  0.03502304  0.83596627     0.18200
H1581       H  0.77871193  0.09128223  0.77668088     0.18200
F1582       F  0.81642904  0.11607421  0.79977680    -0.19600
C1583       C  0.06022829  0.92425383  0.94095798    -0.21000
C1584       C  0.03488616  0.93413996  0.93537803    -0.09100
C1585       C  0.02109357  0.92373631  0.91369359     0.29800
C1586       C  0.03295675  0.90467701  0.89753089    -0.21000
C1587       C  0.05869163  0.89537711  0.90271721    -0.09100
C1588       C  0.07195590  0.90513028  0.92502332     0.29800
F1589       F  0.09621814  0.89617769  0.93180991    -0.19600
H1590       H  0.07119899  0.93142488  0.95780963     0.18200
H1591       H  0.02226364  0.89793938  0.88034639     0.18200
F1592       F  0.99665159  0.93270073  0.90740043    -0.19600
C1593       C  0.91595330  0.91477380  0.07014671    -0.21000
C1594       C  0.89059285  0.91176547  0.05935526    -0.09100
C1595       C  0.88432578  0.92588266  0.03612950     0.29800
C1596       C  0.90318961  0.94220997  0.02409878    -0.21000
C1597       C  0.92830862  0.94539210  0.03532211    -0.09100
C1598       C  0.93443911  0.93154917  0.05855704     0.29800
F1599       F  0.95866721  0.93368988  0.06978774    -0.19600
H1600       H  0.92190213  0.90372474  0.08739405     0.18200
H1601       H  0.89790018  0.95298285  0.00642695     0.18200
F1602       F  0.85981645  0.92469397  0.02542558    -0.19600
C1603       C  0.95659594  0.12706835  0.07664047    -0.21000
C1604       C  0.93829604  0.11840002  0.09561963    -0.09100
C1605       C  0.93268619  0.09139864  0.09741990     0.29800
C1606       C  0.94507333  0.07350493  0.08061758    -0.21000
C1607       C  0.96309132  0.08202212  0.06133865    -0.09100
C1608       C  0.96871795  0.10910296  0.05940079     0.29800
F1609       F  0.98633426  0.11812563  0.04136301    -0.19600
H1610       H  0.96134037  0.14778504  0.07506477     0.18200
H1611       H  0.94032266  0.05281872  0.08258610     0.18200
F1612       F  0.91589067  0.08206632  0.11605681    -0.19600
C1613       C  0.07886444  0.96301242  0.11493583    -0.21000
C1614       C  0.09730784  0.94427361  0.10627088    -0.09100
C1615       C  0.09927286  0.93889799  0.07914905     0.29800
C1616       C  0.08314260  0.95205821  0.06112251    -0.21000
C1617       C  0.06437719  0.97052931  0.06969605    -0.09100
C1618       C  0.06228053  0.97584260  0.09688218     0.29800
F1619       F  0.04457984  0.99372683  0.10596881    -0.19600
H1620       H  0.07713885  0.96750364  0.13574067     0.18200
H1621       H  0.08510250  0.94746512  0.04035556     0.18200
F1622       F  0.11733364  0.92149142  0.06986763    -0.19600
C1623       C  0.09354302  0.16592096  0.85362655    -0.21000
C1624       C  0.10045356  0.17307070  0.87930545    -0.09100
C1625       C  0.08599688  0.19301218  0.89210774     0.29800
C1626       C  0.06574408  0.20624058  0.87889388    -0.21000
C1627       C  0.05941867  0.19982033  0.85272645    -0.09100
C1628       C  0.07334925  0.17911634  0.84033228     0.29800
F1629       F  0.06823190  0.17208099  0.81503014    -0.19600
H1630       H  0.10448437  0.15081038  0.84338108     0.18200
H1631       H  0.05529955  0.22181776  0.88906772     0.18200
F1632       F  0.09139967  0.19970017  0.91744880    -0.19600
C1633       C  0.11902617  0.08537810  0.95120476    -0.21000
C1634       C  0.11021420  0.10670128  0.93597993    -0.09100
C1635       C  0.08299885  0.11084745  0.93290200     0.29800
C1636       C  0.06488715  0.09399898  0.94497808    -0.21000
C1637       C  0.07349549  0.07234283  0.95996359    -0.09100
C1638       C  0.10087316  0.06808359  0.96286315     0.29800
F1639       F  0.11012991  0.04746393  0.97716741    -0.19600
H1640       H  0.13998048  0.08191960  0.95371182     0.18200
H1641       H  0.04401084  0.09773352  0.94225061     0.18200
F1642       F  0.07387115  0.13156247  0.91866086    -0.19600
C1643       C  0.17477848  0.18667669  0.95949372    -0.21000
C1644       C  0.18135970  0.17784052  0.93395393    -0.09100
C1645       C  0.20064623  0.19217684  0.91969319     0.29800
C1646       C  0.21326541  0.21379642  0.93100654    -0.21000
C1647       C  0.20602590  0.22270018  0.95608524    -0.09100
C1648       C  0.18691420  0.20875017  0.97043668     0.29800
F1649       F  0.17950103  0.21675818  0.99488191    -0.19600
H1650       H  0.15899209  0.17767408  0.97061887     0.18200
H1651       H  0.22762520  0.22459512  0.91943642     0.18200
F1652       F  0.20594680  0.18687127  0.89402491    -0.19600
C1653       C  0.29226105  0.03804833  0.68217728    -0.21000
C1654       C  0.28215177  0.04979444  0.70506769    -0.09100
C1655       C  0.29458709  0.07234434  0.71511422     0.29800
C1656       C  0.31629343  0.08316287  0.70210134    -0.21000
C1657       C  0.32641324  0.07168593  0.67886971    -0.09100
C1658       C  0.31382268  0.04893853  0.66902842     0.29800
F1659       F  0.32111968  0.03810997  0.64568587    -0.19600
H1660       H  0.28296923  0.02073903  0.67390317     0.18200
H1661       H  0.32380320  0.10155090  0.70958354     0.18200
F1662       F  0.28483893  0.08500959  0.73658053    -0.19600
C1663       C  0.19699776  0.07774070  0.84287302    -0.21000
C1664       C  0.17976558  0.07323905  0.82170799    -0.09100
C1665       C  0.15521891  0.08626083  0.82140375     0.29800
C1666       C  0.14829769  0.10348669  0.84172988    -0.21000
C1667       C  0.16544037  0.10809166  0.86297612    -0.09100
C1668       C  0.18987895  0.09464695  0.86347069     0.29800
F1669       F  0.20652319  0.09676620  0.88430649    -0.19600
H1670       H  0.21575842  0.06754319  0.84388399     0.18200
H1671       H  0.12948858  0.11339719  0.84053868     0.18200
F1672       F  0.13799445  0.08276245  0.80120693    -0.19600
C1673       C  0.15628929  0.92871443  0.82179513    -0.21000
C1674       C  0.14281680  0.94513952  0.80388212    -0.09100
C1675       C  0.11513024  0.94372881  0.80248867     0.29800
C1676       C  0.10152165  0.92518715  0.81767001    -0.21000
C1677       C  0.11522438  0.90818529  0.83471087    -0.09100
C1678       C  0.14263343  0.91046122  0.83716378     0.29800
F1679       F  0.15639035  0.89377795  0.85294426    -0.19600
H1680       H  0.17759568  0.92948887  0.82342107     0.18200
H1681       H  0.08031594  0.92345171  0.81550257     0.18200
F1682       F  0.10136419  0.95909696  0.78543941    -0.19600
C1683       C  0.81782592  0.30536942  0.96805810    -0.21000
C1684       C  0.79582884  0.29467601  0.95516990    -0.09100
C1685       C  0.78637242  0.30716945  0.93229770     0.29800
C1686       C  0.79929918  0.32929177  0.92216066    -0.21000
C1687       C  0.82175999  0.33992335  0.93472136    -0.09100
C1688       C  0.83081419  0.32740577  0.95794733     0.29800
F1689       F  0.85341607  0.33511800  0.96999928    -0.19600
H1690       H  0.82556624  0.29616738  0.98571718     0.18200
H1691       H  0.79250681  0.33680026  0.90342494     0.18200
F1692       F  0.76568438  0.29706198  0.91865744    -0.19600
C1693       C  0.84352722  0.17674408  0.05918383    -0.21000
C1694       C  0.82509399  0.19518712  0.06865205    -0.09100
C1695       C  0.82640167  0.20288069  0.09523910     0.29800
C1696       C  0.84626593  0.19283626  0.11168445    -0.21000
C1697       C  0.86477179  0.17448757  0.10213010    -0.09100
C1698       C  0.86297849  0.16625813  0.07575791     0.29800
F1699       F  0.88065487  0.14890192  0.06565089    -0.19600
H1700       H  0.84275264  0.17025704  0.03885461     0.18200
H1701       H  0.84721289  0.19940811  0.13197340     0.18200
F1702       F  0.80903588  0.22068114  0.10510541    -0.19600
C1703       C  0.83199912  0.14493121  0.94353321    -0.21000
C1704       C  0.80701973  0.15598831  0.93911019    -0.09100
C1705       C  0.79623958  0.15578788  0.91373027     0.29800
C1706       C  0.81018005  0.14446861  0.89298642    -0.21000
C1707       C  0.83484654  0.13242085  0.89726276    -0.09100
C1708       C  0.84576305  0.13284873  0.92281387     0.29800
F1709       F  0.86902053  0.12068972  0.92808864    -0.19600
H1710       H  0.84060436  0.14532146  0.96308159     0.18200
H1711       H  0.80147234  0.14494882  0.87349290     0.18200
F1712       F  0.77237919  0.16702469  0.90893932    -0.19600
C1713       C  0.11088016  0.85109766  0.17938598    -0.21000
C1714       C  0.10091611  0.87070296  0.16255347    -0.09100
C1715       C  0.07376072  0.87147496  0.15723829     0.29800
C1716       C  0.05685607  0.85302674  0.16888424    -0.21000
C1717       C  0.06681718  0.83327545  0.18566735    -0.09100
C1718       C  0.09410178  0.83242539  0.19070982     0.29800
F1719       F  0.10451998  0.81392851  0.20700300    -0.19600
H1720       H  0.13176971  0.85039631  0.18391604     0.18200
H1721       H  0.03595649  0.85398312  0.16447236     0.18200
F1722       F  0.06345393  0.89063759  0.14166823    -0.19600
C1723       C  0.91317418  0.67795400  0.19422201    -0.21000
C1724       C  0.93646603  0.68291141  0.18016355    -0.09100
C1725       C  0.94250388  0.66711474  0.15813544     0.29800
C1726       C  0.92544705  0.64688468  0.15039318    -0.21000
C1727       C  0.90189199  0.64211912  0.16419727    -0.09100
C1728       C  0.89585279  0.65808419  0.18619506     0.29800
F1729       F  0.87271093  0.65534871  0.19939669    -0.19600
H1730       H  0.90791245  0.69008762  0.21097132     0.18200
H1731       H  0.93091744  0.63473148  0.13374275     0.18200
F1732       F  0.96518759  0.67086350  0.14436115    -0.19600
C1733       C  0.92859451  0.83786659  0.15501515    -0.21000
C1734       C  0.94107703  0.81599845  0.14322165    -0.09100
C1735       C  0.93417937  0.80932893  0.11719770     0.29800
C1736       C  0.91452955  0.82346773  0.10396609    -0.21000
C1737       C  0.90124764  0.84447845  0.11628108    -0.09100
C1738       C  0.90891388  0.85196414  0.14174520     0.29800
F1739       F  0.89635001  0.87182689  0.15448141    -0.19600
H1740       H  0.93348520  0.84370153  0.17495184     0.18200
H1741       H  0.90932709  0.81763253  0.08409981     0.18200
F1742       F  0.94585945  0.78880978  0.10465922    -0.19600
C1743       C  0.08151449  0.68924611  0.15974927    -0.21000
C1744       C  0.06349101  0.70506438  0.14561504    -0.09100
C1745       C  0.06375929  0.70408663  0.11787954     0.29800
C1746       C  0.08266169  0.68880075  0.10479630    -0.21000
C1747       C  0.10111649  0.67387335  0.11908562    -0.09100
C1748       C  0.10007461  0.67370281  0.14662877     0.29800
F1749       F  0.11802336  0.65978925  0.16082498    -0.19600
H1750       H  0.08165899  0.68929672  0.18110734     0.18200
H1751       H  0.08338172  0.68910138  0.08344223     0.18200
F1752       F  0.04665249  0.71871443  0.10339291    -0.19600
C1753       C  0.67552657  0.16607963  0.07344774    -0.21000
C1754       C  0.69551361  0.15341966  0.05888870    -0.09100
C1755       C  0.69861059  0.12605669  0.06143796     0.29800
C1756       C  0.68331564  0.11212131  0.07966015    -0.21000
C1757       C  0.66441973  0.12508965  0.09528376    -0.09100
C1758       C  0.65993361  0.15203039  0.09134980     0.29800
F1759       F  0.64194651  0.16516146  0.10619690    -0.19600
H1760       H  0.67248398  0.18709291  0.07153233     0.18200
H1761       H  0.68694675  0.09128264  0.08236119     0.18200
F1762       F  0.71755741  0.11305705  0.04769901    -0.19600
C1763       C  0.55621507  0.06981155  0.08285543    -0.21000
C1764       C  0.56036593  0.04378302  0.07439558    -0.09100
C1765       C  0.58191423  0.02976076  0.08482448     0.29800
C1766       C  0.59947934  0.04202760  0.10224454    -0.21000
C1767       C  0.59575974  0.06837067  0.11018477    -0.09100
C1768       C  0.57343081  0.08190789  0.10065370     0.29800
F1769       F  0.56774259  0.10670298  0.10867821    -0.19600
H1770       H  0.53949427  0.08098537  0.07562523     0.18200
H1771       H  0.61652954  0.03097821  0.10878048     0.18200
F1772       F  0.58672913  0.00456011  0.07741385    -0.19600
C1773       C  0.64284202  0.09579570  0.84627456    -0.21000
C1774       C  0.61719308  0.10317618  0.83949055    -0.09100
C1775       C  0.60375823  0.08874822  0.81992050     0.29800
C1776       C  0.61673184  0.06879619  0.80599204    -0.21000
C1777       C  0.64317178  0.06262837  0.81158664    -0.09100
C1778       C  0.65573439  0.07568597  0.83273793     0.29800
F1779       F  0.68097833  0.07003346  0.83973822    -0.19600
H1780       H  0.65359389  0.10652510  0.86100848     0.18200
H1781       H  0.60629818  0.05872385  0.79034917     0.18200
F1782       F  0.57822917  0.09427000  0.81391961    -0.19600
C1783       C  0.67771229  0.16488669  0.92399771    -0.21000
C1784       C  0.67773797  0.19083633  0.93353762    -0.09100
C1785       C  0.65641864  0.20729040  0.92710396     0.29800
C1786       C  0.63555491  0.19771349  0.91170601    -0.21000
C1787       C  0.63563204  0.17169572  0.90178619    -0.09100
C1788       C  0.65709202  0.15540349  0.90845720     0.29800
F1789       F  0.65880126  0.13035314  0.89981698    -0.19600
H1790       H  0.69386987  0.15167185  0.92857103     0.18200
H1791       H  0.61913068  0.21079630  0.90799594     0.18200
F1792       F  0.65522812  0.23231817  0.93633143    -0.19600
C1793       C  0.52852979  0.10530585  0.93826141    -0.21000
C1794       C  0.53535968  0.07851772  0.93678014    -0.09100
C1795       C  0.55489479  0.07065099  0.91867953     0.29800
C1796       C  0.56746921  0.08922533  0.90271880    -0.21000
C1797       C  0.56063731  0.11594447  0.90409943    -0.09100
C1798       C  0.54079795  0.12386446  0.92183703     0.29800
F1799       F  0.53378394  0.14956422  0.92380100    -0.19600
H1800       H  0.51360194  0.11185149  0.95208253     0.18200
H1801       H  0.58244529  0.08260450  0.88898393     0.18200
F1802       F  0.56252116  0.04509709  0.91698569    -0.19600
C1803       C  0.54079381  0.17625189  0.82034281    -0.21000
C1804       C  0.56472455  0.18505648  0.83140323    -0.09100
C1805       C  0.57761659  0.20658734  0.81911943     0.29800
C1806       C  0.56607264  0.21945400  0.79773998    -0.21000
C1807       C  0.54241858  0.21034801  0.78684864    -0.09100
C1808       C  0.52973547  0.18866175  0.79844807     0.29800
F1809       F  0.50686846  0.17903830  0.78839002    -0.19600
H1810       H  0.53115189  0.15875782  0.82775979     0.18200
H1811       H  0.57653778  0.23571933  0.78870422     0.18200
F1812       F  0.60233856  0.21415536  0.82589013    -0.19600
C1813       C  0.43416364  0.08909915  0.05629479    -0.21000
C1814       C  0.42500514  0.07011591  0.03839770    -0.09100
C1815       C  0.39782127  0.06900223  0.03273733     0.29800
C1816       C  0.38032531  0.08676628  0.04475872    -0.21000
C1817       C  0.38961193  0.10545531  0.06294008    -0.09100
C1818       C  0.41674529  0.10645738  0.06854714     0.29800
F1819       F  0.42666838  0.12475931  0.08528191    -0.19600
H1820       H  0.45497387  0.09040276  0.06103869     0.18200
H1821       H  0.35948380  0.08575272  0.04011606     0.18200
F1822       F  0.38827707  0.05124695  0.01520347    -0.19600
C1823       C  0.29499246  0.18429829  0.07180564    -0.21000
C1824       C  0.32115871  0.17840401  0.06424541    -0.09100
C1825       C  0.33266304  0.19351612  0.04385554     0.29800
C1826       C  0.31898994  0.21445091  0.03246888    -0.21000
C1827       C  0.29363235  0.22121047  0.04120591    -0.09100
C1828       C  0.28143345  0.20552971  0.06051596     0.29800
F1829       F  0.25646124  0.21082268  0.06867147    -0.19600
H1830       H  0.28505456  0.17357511  0.08721639     0.18200
H1831       H  0.32881282  0.22617394  0.01755219     0.18200
F1832       F  0.35796292  0.18917563  0.03610957    -0.19600
C1833       C  0.42679075  0.89924489  0.07199504    -0.21000
C1834       C  0.43909035  0.89257775  0.09586418    -0.09100
C1835       C  0.46299066  0.90508049  0.10258123     0.29800
C1836       C  0.47405082  0.92402185  0.08577285    -0.21000
C1837       C  0.46131947  0.93121544  0.06223142    -0.09100
C1838       C  0.43766865  0.91833565  0.05535169     0.29800
F1839       F  0.42507054  0.92403635  0.03241979    -0.19600
H1840       H  0.40855466  0.88973579  0.06624081     0.18200
H1841       H  0.49210768  0.93377905  0.09166120     0.18200
F1842       F  0.47491940  0.90016799  0.12603795    -0.19600
C1843       C  0.46593903  0.82368979  0.20692353    -0.21000
C1844       C  0.45754294  0.79828783  0.21369809    -0.09100
C1845       C  0.43975846  0.78524445  0.19681134     0.29800
C1846       C  0.42917997  0.79825342  0.17483372    -0.21000
C1847       C  0.43616138  0.82450695  0.16916864    -0.09100
C1848       C  0.45562000  0.83656374  0.18499997     0.29800
F1849       F  0.46334430  0.86173510  0.18039429    -0.19600
H1850       H  0.48009286  0.83408135  0.21905072     0.18200
H1851       H  0.41474725  0.78781915  0.16327760     0.18200
F1852       F  0.43174773  0.76027869  0.20195386    -0.19600
C1853       C  0.66411569  0.93307528  0.86783103    -0.21000
C1854       C  0.66535250  0.90575626  0.86497218    -0.09100
C1855       C  0.67715722  0.89509739  0.84226170     0.29800
C1856       C  0.68741011  0.91169347  0.82262970    -0.21000
C1857       C  0.68650768  0.93920575  0.82555312    -0.09100
C1858       C  0.67458745  0.94969674  0.84848681     0.29800
F1859       F  0.67269218  0.97607132  0.85224641    -0.19600
H1860       H  0.65567603  0.94159206  0.88547304     0.18200
H1861       H  0.69621666  0.90300372  0.80523115     0.18200
F1862       F  0.67863575  0.86862889  0.83905728    -0.19600
C1863       C  0.60216955  0.90760378  0.96625420    -0.21000
C1864       C  0.61059579  0.91243101  0.94014351    -0.09100
C1865       C  0.60035684  0.93463862  0.92701269     0.29800
C1866       C  0.58153370  0.95066086  0.93919343    -0.21000
C1867       C  0.57263897  0.94543136  0.96493903    -0.09100
C1868       C  0.58367123  0.92400560  0.97864022     0.29800
F1869       F  0.57592676  0.91823308  0.00361570    -0.19600
H1870       H  0.60918705  0.89058308  0.97699748     0.18200
H1871       H  0.57388787  0.96735465  0.92830380     0.18200
F1872       F  0.60863533  0.94138367  0.90251909    -0.19600
C1873       C  0.39997572  0.93878620  0.91472505    -0.21000
C1874       C  0.40370937  0.94435368  0.88789819    -0.09100
C1875       C  0.42368299  0.96207129  0.88045014     0.29800
C1876       C  0.43982028  0.97370637  0.89969415    -0.21000
C1877       C  0.43581905  0.96836174  0.92664796    -0.09100
C1878       C  0.41561520  0.95074819  0.93392847     0.29800
F1879       F  0.41131084  0.94451802  0.95961686    -0.19600
H1880       H  0.38457945  0.92534382  0.92091526     0.18200
H1881       H  0.45526522  0.98710374  0.89355155     0.18200
F1882       F  0.42795577  0.96764890  0.85461984    -0.19600
C1883       C  0.32042994  0.93156366  0.79559991    -0.21000
C1884       C  0.33143930  0.94365196  0.81812067    -0.09100
C1885       C  0.31934182  0.96690201  0.82750581     0.29800
C1886       C  0.29740096  0.97757455  0.81475178    -0.21000
C1887       C  0.28609015  0.96500000  0.79290598    -0.09100
C1888       C  0.29813925  0.94206981  0.78311884     0.29800
F1889       F  0.28804578  0.92931558  0.76189004    -0.19600
H1890       H  0.32777559  0.91300749  0.78832879     0.18200
H1891       H  0.28840699  0.99509796  0.82294098     0.18200
F1892       F  0.32731018  0.97835277  0.85030545    -0.19600
C1893       C  0.21367942  0.71282749  0.06422642    -0.21000
C1894       C  0.20631848  0.72191717  0.03924531    -0.09100
C1895       C  0.18641790  0.70861755  0.02534989     0.29800
C1896       C  0.17365055  0.68704650  0.03668716    -0.21000
C1897       C  0.18041874  0.67807881  0.06212709    -0.09100
C1898       C  0.20048453  0.69175017  0.07591534     0.29800
F1899       F  0.20613532  0.68633625  0.10149722    -0.19600
H1900       H  0.22860578  0.72313402  0.07548664     0.18200
H1901       H  0.15735935  0.67849863  0.02595948     0.18200
F1902       F  0.17882494  0.71681465  0.00101307    -0.19600
C1903       C  0.34296420  0.80752951  0.06885754    -0.21000
C1904       C  0.32214995  0.82513231  0.06391185    -0.09100
C1905       C  0.32254073  0.84986696  0.07640366     0.29800
C1906       C  0.34318559  0.85664404  0.09341821    -0.21000
C1907       C  0.36405929  0.83912778  0.09845184    -0.09100
C1908       C  0.36382651  0.81445604  0.08563606     0.29800
F1909       F  0.38424539  0.79736437  0.08826007    -0.19600
H1910       H  0.34350519  0.78859105  0.05910837     0.18200
H1911       H  0.34254040  0.87563136  0.10280114     0.18200
F1912       F  0.30275223  0.86748465  0.07254883    -0.19600
C1913       C  0.13147759  0.84296960  0.92220820    -0.21000
C1914       C  0.13446204  0.84232491  0.89482171    -0.09100
C1915       C  0.15765958  0.83171313  0.88394325     0.29800
C1916       C  0.17748500  0.82166800  0.90042506    -0.21000
C1917       C  0.17432483  0.82176935  0.92800681    -0.09100
C1918       C  0.15113838  0.83295300  0.93871506     0.29800
F1919       F  0.14736044  0.83441155  0.96517824    -0.19600
H1920       H  0.11347620  0.85048350  0.93085788     0.18200
H1921       H  0.19517473  0.81357338  0.89158204     0.18200
F1922       F  0.16107548  0.83105174  0.85739884    -0.19600
C1923       C  0.33542537  0.86036942  0.89666820    -0.21000
C1924       C  0.33686125  0.88775387  0.89764470    -0.09100
C1925       C  0.32308535  0.90145439  0.91738099     0.29800
C1926       C  0.30751783  0.88775438  0.93561900    -0.21000
C1927       C  0.30517562  0.86025547  0.93407771    -0.09100
C1928       C  0.31987546  0.84663055  0.91467938     0.29800
F1929       F  0.31877608  0.82002784  0.91250654    -0.19600
H1930       H  0.34519033  0.84966258  0.88102391     0.18200
H1931       H  0.29653643  0.89873380  0.95026704     0.18200
F1932       F  0.32400212  0.92812192  0.91837809    -0.19600
C1933       C  0.17036027  0.84850072  0.06774928    -0.21000
C1934       C  0.19021917  0.86175361  0.05339918    -0.09100
C1935       C  0.19485771  0.88848310  0.05881510     0.29800
C1936       C  0.18114035  0.90098779  0.07917399    -0.21000
C1937       C  0.16241089  0.88726044  0.09433189    -0.09100
C1938       C  0.15653227  0.86112223  0.08797973     0.29800
F1939       F  0.13869790  0.84728477  0.10237673    -0.19600
H1940       H  0.16609836  0.82797000  0.06399779     0.18200
H1941       H  0.18552115  0.92139209  0.08349093     0.18200
F1942       F  0.21298047  0.90244412  0.04492314    -0.19600
C1943       C  0.20653172  0.97301241  0.17821221    -0.21000
C1944       C  0.21506771  0.96165310  0.20198096    -0.09100
C1945       C  0.20032984  0.94092964  0.21291400     0.29800
C1946       C  0.17839770  0.93100314  0.19961789    -0.21000
C1947       C  0.17030532  0.94160787  0.17516576    -0.09100
C1948       C  0.18459201  0.96312860  0.16489306     0.29800
F1949       F  0.17847324  0.97356891  0.14101280    -0.19600
H1950       H  0.21731881  0.98918784  0.16941597     0.18200
H1951       H  0.16919854  0.91387553  0.20810265     0.18200
F1952       F  0.20787877  0.92911495  0.23572854    -0.19600
C1953       C  0.33325920  0.06514832  0.15533718    -0.21000
C1954       C  0.31471967  0.07350138  0.17425511    -0.09100
C1955       C  0.30692239  0.10005513  0.17442951     0.29800
C1956       C  0.31695095  0.11760148  0.15563911    -0.21000
C1957       C  0.33533620  0.10923398  0.13662746    -0.09100
C1958       C  0.34370948  0.08285253  0.13686248     0.29800
F1959       F  0.36112853  0.07388091  0.11861294    -0.19600
H1960       H  0.33984660  0.04486889  0.15498258     0.18200
H1961       H  0.31023859  0.13783877  0.15586177     0.18200
F1962       F  0.28902894  0.10891608  0.19226598    -0.19600
C1963       C  0.35190957  0.90631416  0.33996166    -0.21000
C1964       C  0.33535651  0.90258971  0.36185852    -0.09100
C1965       C  0.31069577  0.91564608  0.36218614     0.29800
C1966       C  0.30281575  0.93144545  0.34093832    -0.21000
C1967       C  0.31947806  0.93525588  0.31917146    -0.09100
C1968       C  0.34419529  0.92246185  0.31889958     0.29800
F1969       F  0.36083543  0.92523533  0.29808607    -0.19600
H1970       H  0.37078195  0.89648605  0.33889693     0.18200
H1971       H  0.28397613  0.94149068  0.34196208     0.18200
F1972       F  0.29455472  0.91421642  0.38349972    -0.19600
C1973       C  0.35688356  0.91302729  0.15360090    -0.21000
C1974       C  0.38213989  0.90528114  0.16144482    -0.09100
C1975       C  0.39486724  0.91917987  0.18184510     0.29800
C1976       C  0.38170653  0.93931078  0.19521979    -0.21000
C1977       C  0.35574260  0.94612090  0.18837916    -0.09100
C1978       C  0.34371414  0.93319221  0.16682667     0.29800
F1979       F  0.31882061  0.93922849  0.15896126    -0.19600
H1980       H  0.34677389  0.90270831  0.13803457     0.18200
H1981       H  0.39166591  0.94913524  0.21132368     0.18200
F1982       F  0.41998198  0.91316874  0.18902137    -0.19600
C1983       C  0.37980062  0.06974525  0.29685061    -0.21000
C1984       C  0.35307665  0.06485629  0.30187069    -0.09100
C1985       C  0.34024831  0.07875314  0.32226383     0.29800
C1986       C  0.35369043  0.09819171  0.33634641    -0.21000
C1987       C  0.37986028  0.10431280  0.33000901    -0.09100
C1988       C  0.39310263  0.08940521  0.31066241     0.29800
F1989       F  0.41880822  0.09414896  0.30477146    -0.19600
H1990       H  0.39006001  0.05922199  0.28135678     0.18200
H1991       H  0.34328661  0.10930410  0.35132395     0.18200
F1992       F  0.31456506  0.07392265  0.32821719    -0.19600
C1993       C  0.53296683  0.82847230  0.70580247    -0.21000
C1994       C  0.54292187  0.80370338  0.71296693    -0.09100
C1995       C  0.56192530  0.79172385  0.69684326     0.29800
C1996       C  0.57190648  0.80501012  0.67485036    -0.21000
C1997       C  0.56327150  0.83069962  0.66851877    -0.09100
C1998       C  0.54300956  0.84187992  0.68400271     0.29800
F1999       F  0.53427381  0.86670898  0.67927047    -0.19600
H2000       H  0.51808993  0.83804930  0.71778494     0.18200
H2001       H  0.58734212  0.79526776  0.66401814     0.18200
F2002       F  0.57106536  0.76722996  0.70241817    -0.19600
C2003       C  0.42221144  0.82851096  0.84203763    -0.21000
C2004       C  0.43404970  0.82876971  0.81698943    -0.09100
C2005       C  0.42823049  0.84967493  0.79974483     0.29800
C2006       C  0.41136882  0.87002290  0.80773549    -0.21000
C2007       C  0.39952973  0.86989479  0.83291695    -0.09100
C2008       C  0.40506745  0.84860523  0.84990308     0.29800
F2009       F  0.39363472  0.84659289  0.87396371    -0.19600
H2010       H  0.42612615  0.81253505  0.85564946     0.18200
H2011       H  0.40813901  0.88622774  0.79426239     0.18200
F2012       F  0.43958681  0.85105554  0.77552883    -0.19600
C2013       C  0.56223977  0.81455806  0.88016472    -0.21000
C2014       C  0.56326676  0.81418099  0.85250187    -0.09100
C2015       C  0.58091098  0.83132130  0.83940409     0.29800
C2016       C  0.59814643  0.84720823  0.85383393    -0.21000
C2017       C  0.59827665  0.84605922  0.88137313    -0.09100
C2018       C  0.57975999  0.83018938  0.89451905     0.29800
F2019       F  0.57939217  0.82905339  0.92126408    -0.19600
H2020       H  0.54872361  0.80184450  0.89073254     0.18200
H2021       H  0.61246021  0.85924662  0.84349328     0.18200
F2022       F  0.58204189  0.83230114  0.81266763    -0.19600
C2023       C  0.43793452  0.31489698  0.62442140    -0.21000
C2024       C  0.43651062  0.31333697  0.65201933    -0.09100
C2025       C  0.41770648  0.32900441  0.66543305     0.29800
C2026       C  0.39979823  0.34450130  0.65128811    -0.21000
C2027       C  0.40024955  0.34448479  0.62374662    -0.09100
C2028       C  0.41984709  0.33018179  0.61037578     0.29800
F2029       F  0.42069443  0.33013152  0.58361607    -0.19600
H2030       H  0.45226234  0.30334529  0.61359071     0.18200
H2031       H  0.38466878  0.35536326  0.66177010     0.18200
F2032       F  0.41602760  0.32882698  0.69215771    -0.19600
C2033       C  0.38534087  0.42418123  0.54216235    -0.21000
C2034       C  0.39332327  0.40808038  0.56323141    -0.09100
C2035       C  0.41963856  0.40928094  0.57199256     0.29800
C2036       C  0.43760604  0.42610214  0.55964503    -0.21000
C2037       C  0.42955810  0.44237904  0.53877263    -0.09100
C2038       C  0.40320741  0.44141006  0.53016841     0.29800
F2039       F  0.39491177  0.45663424  0.50977789    -0.19600
H2040       H  0.36516424  0.42356679  0.53513239     0.18200
H2041       H  0.45779783  0.42669122  0.56665854     0.18200
F2042       F  0.42827833  0.39365944  0.59192327    -0.19600
C2043       C  0.56959224  0.42640963  0.40158331    -0.21000
C2044       C  0.56178981  0.39992169  0.40207051    -0.09100
C2045       C  0.54182799  0.39213484  0.41976952     0.29800
C2046       C  0.53021194  0.41059461  0.43677513    -0.21000
C2047       C  0.53787160  0.43716834  0.43599518    -0.09100
C2048       C  0.55773111  0.44487797  0.41818064     0.29800
F2049       F  0.56624465  0.47018553  0.41726989    -0.19600
H2050       H  0.58471839  0.43298638  0.38799156     0.18200
H2051       H  0.51503743  0.40417335  0.45038906     0.18200
F2052       F  0.53398466  0.36664607  0.42108120    -0.19600
C2053       C  0.42303925  0.64648981  0.34886013    -0.21000
C2054       C  0.39972474  0.64180686  0.33462602    -0.09100
C2055       C  0.39459424  0.65743542  0.31209644     0.29800
C2056       C  0.41251540  0.67688047  0.30409544    -0.21000
C2057       C  0.43549157  0.68177417  0.31869230    -0.09100
C2058       C  0.44058572  0.66632785  0.34120970     0.29800
F2059       F  0.46288291  0.66999389  0.35558829    -0.19600
H2060       H  0.42803619  0.63455973  0.36582540     0.18200
H2061       H  0.40798252  0.68872157  0.28690597     0.18200
F2062       F  0.37182761  0.65481859  0.29827795    -0.19600
C2063       C  0.39667410  0.57291181  0.41875198    -0.21000
C2064       C  0.40166927  0.56955813  0.39178858    -0.09100
C2065       C  0.42318720  0.55414711  0.38375311     0.29800
C2066       C  0.43962790  0.54240016  0.40257675    -0.21000
C2067       C  0.43454446  0.54543339  0.42969370    -0.09100
C2068       C  0.41272662  0.56079195  0.43760184     0.29800
F2069       F  0.40719059  0.56466660  0.46351090    -0.19600
H2070       H  0.38007504  0.58472828  0.42521356     0.18200
H2071       H  0.45630671  0.53083265  0.39591769     0.18200
F2072       F  0.42863439  0.55100150  0.35774165    -0.19600
C2073       C  0.46327451  0.60566003  0.60584627    -0.21000
C2074       C  0.43815991  0.61608596  0.60003463    -0.09100
C2075       C  0.42547437  0.60814006  0.57673614     0.29800
C2076       C  0.43734708  0.58969195  0.56011628    -0.21000
C2077       C  0.46229706  0.57903324  0.56603332    -0.09100
C2078       C  0.47534380  0.58745884  0.58898294     0.29800
F2079       F  0.49929217  0.57747289  0.59564802    -0.19600
H2080       H  0.47340386  0.61114934  0.62381074     0.18200
H2081       H  0.42702021  0.58389897  0.54234828     0.18200
F2082       F  0.40195070  0.61868950  0.56950160    -0.19600
C2083       C  0.43028140  0.71248156  0.67649453    -0.21000
C2084       C  0.43824953  0.68657772  0.67057884    -0.09100
C2085       C  0.45875264  0.67524845  0.68564102     0.29800
C2086       C  0.46984749  0.68886840  0.70663250    -0.21000
C2087       C  0.46074618  0.71402045  0.71345690    -0.09100
C2088       C  0.44135883  0.72606652  0.69768852     0.29800
F2089       F  0.43194895  0.75038773  0.70351983    -0.19600
H2090       H  0.41438769  0.72202128  0.66610152     0.18200
H2091       H  0.48498319  0.67916514  0.71818451     0.18200
F2092       F  0.46676075  0.65010083  0.68137630    -0.19600
C2093       C  0.59069630  0.36728633  0.69206453    -0.21000
C2094       C  0.60082909  0.36755101  0.66610152    -0.09100
C2095       C  0.59392399  0.34649447  0.64933874     0.29800
C2096       C  0.57723247  0.32642988  0.65813403    -0.21000
C2097       C  0.56701931  0.32640035  0.68388404    -0.09100
C2098       C  0.57425971  0.34692826  0.70095448     0.29800
F2099       F  0.56469578  0.34796014  0.72593679    -0.19600
H2100       H  0.59486399  0.38321418  0.70554840     0.18200
H2101       H  0.57227119  0.31074413  0.64456873     0.18200
F2102       F  0.60334968  0.34463353  0.62447244    -0.19600
C2103       C  0.58262845  0.46544270  0.61640487    -0.21000
C2104       C  0.59654510  0.44246816  0.60939538    -0.09100
C2105       C  0.59424140  0.43311483  0.58330519     0.29800
C2106       C  0.57777795  0.44583076  0.56526479    -0.21000
C2107       C  0.56393553  0.46867277  0.57228201    -0.09100
C2108       C  0.56669495  0.47860451  0.59799176     0.29800
F2109       F  0.55333818  0.50048056  0.60558238    -0.19600
H2110       H  0.58390355  0.47317063  0.63624663     0.18200
H2111       H  0.57628755  0.43806575  0.54542930     0.18200
F2112       F  0.60874022  0.41245412  0.57454568    -0.19600
C2113       C  0.67484356  0.43560244  0.70444009    -0.21000
C2114       C  0.66919642  0.44195198  0.67797344    -0.09100
C2115       C  0.68453490  0.46164714  0.66564270     0.29800
C2116       C  0.70598734  0.47288932  0.67858945    -0.21000
C2117       C  0.71272797  0.46510402  0.70426944    -0.09100
C2118       C  0.69632787  0.44697405  0.71743620     0.29800
F2119       F  0.70151196  0.43934011  0.74256953    -0.19600
H2120       H  0.66370347  0.42107761  0.71516917     0.18200
H2121       H  0.71781165  0.48721405  0.66806689     0.18200
F2122       F  0.67988620  0.46880146  0.64024826    -0.19600
C2123       C  0.58468364  0.68674811  0.33728101    -0.21000
C2124       C  0.56398209  0.69908588  0.35121885    -0.09100
C2125       C  0.56098193  0.69358611  0.37828326     0.29800
C2126       C  0.57944344  0.67771323  0.39126606    -0.21000
C2127       C  0.60078594  0.66675913  0.37746703    -0.09100
C2128       C  0.60297504  0.67080992  0.35028617     0.29800
F2129       F  0.62383585  0.66095215  0.33669373    -0.19600
H2130       H  0.58737866  0.69018003  0.31637047     0.18200
H2131       H  0.57782879  0.67494970  0.41239848     0.18200
F2132       F  0.54109955  0.70449529  0.39250708    -0.19600
C2133       C  0.61384324  0.59411155  0.46484664    -0.21000
C2134       C  0.60780527  0.60655551  0.44073499    -0.09100
C2135       C  0.58230210  0.60327170  0.43014637     0.29800
C2136       C  0.56403230  0.58691436  0.44257936    -0.21000
C2137       C  0.57025574  0.57396608  0.46623320    -0.09100
C2138       C  0.59519816  0.57811423  0.47762483     0.29800
F2139       F  0.60195969  0.56585697  0.50043243    -0.19600
H2140       H  0.63320902  0.59632295  0.47358144     0.18200
H2141       H  0.54473691  0.58449326  0.43369255     0.18200
F2142       F  0.57444845  0.61642936  0.40822645    -0.19600
C2143       C  0.17999325  0.43407808  0.79486753    -0.21000
C2144       C  0.17119259  0.44422748  0.81920736    -0.09100
C2145       C  0.18440088  0.46635622  0.82967932     0.29800
C2146       C  0.20566076  0.47762225  0.81639461    -0.21000
C2147       C  0.21495326  0.46677098  0.79275951    -0.09100
C2148       C  0.20159297  0.44514269  0.78181894     0.29800
F2149       F  0.20970086  0.43420464  0.75877682    -0.19600
H2150       H  0.17149111  0.41664044  0.78630755     0.18200
H2151       H  0.21566730  0.49417443  0.82536277     0.18200
F2152       F  0.17796415  0.47613380  0.85374085    -0.19600
C2153       C  0.31451511  0.39735393  0.65087565    -0.21000
C2154       C  0.33187720  0.40671069  0.63144714    -0.09100
C2155       C  0.33835729  0.43353137  0.63090278     0.29800
C2156       C  0.32786622  0.45062393  0.64983780    -0.21000
C2157       C  0.31109704  0.44117183  0.66988763    -0.09100
C2158       C  0.30436888  0.41429678  0.67008308     0.29800
F2159       F  0.28797580  0.40434476  0.68876997    -0.19600
H2160       H  0.30917677  0.37672387  0.65142975     0.18200
H2161       H  0.33342187  0.47118821  0.64918400     0.18200
F2162       F  0.35441052  0.44327424  0.61180324    -0.19600
C2163       C  0.38578142  0.58251716  0.66106001    -0.21000
C2164       C  0.38015026  0.60865639  0.66797477    -0.09100
C2165       C  0.36324104  0.61385062  0.68932147     0.29800
C2166       C  0.35230685  0.59317197  0.70363271    -0.21000
C2167       C  0.35824175  0.56710796  0.69705009    -0.09100
C2168       C  0.37488663  0.56173945  0.67559778     0.29800
F2169       F  0.38017745  0.53653201  0.66854410    -0.19600
H2170       H  0.39901301  0.57827093  0.64481759     0.18200
H2171       H  0.33881058  0.59746583  0.71965765     0.18200
F2172       F  0.35702388  0.63895033  0.69606341    -0.19600
C2173       C  0.30400263  0.38695715  0.06309755    -0.21000
C2174       C  0.30500863  0.35945060  0.06122049    -0.09100
C2175       C  0.32337364  0.34550492  0.07686199     0.29800
C2176       C  0.33889227  0.35872581  0.09535261    -0.21000
C2177       C  0.33627733  0.38589339  0.09860956    -0.09100
C2178       C  0.31938207  0.40010014  0.08177223     0.29800
F2179       F  0.31690996  0.42658122  0.08425590    -0.19600
H2180       H  0.29031390  0.39815563  0.05111096     0.18200
H2181       H  0.35169236  0.34751429  0.10823247     0.18200
F2182       F  0.32580309  0.31897555  0.07487430    -0.19600
C2183       C  0.42680294  0.43644200  0.10987822    -0.21000
C2184       C  0.40055327  0.44473154  0.11242480    -0.09100
C2185       C  0.39155888  0.46638741  0.09763598     0.29800
C2186       C  0.40851630  0.47913626  0.08011347    -0.21000
C2187       C  0.43479929  0.47090717  0.07752869    -0.09100
C2188       C  0.44399491  0.44965826  0.09282263     0.29800
F2189       F  0.46919906  0.44090186  0.09034094    -0.19600
H2190       H  0.43395152  0.41975980  0.12112598     0.18200
H2191       H  0.40107131  0.49534867  0.06837886     0.18200
F2192       F  0.36608433  0.47454371  0.09933947    -0.19600
C2193       C  0.58091634  0.63479131  0.81618112    -0.21000
C2194       C  0.59981622  0.63999304  0.83570910    -0.09100
C2195       C  0.60406218  0.66614671  0.84358766     0.29800
C2196       C  0.58988164  0.68675190  0.83171518    -0.21000
C2197       C  0.57072395  0.68151791  0.81234992    -0.09100
C2198       C  0.56622226  0.65521438  0.80488176     0.29800
F2199       F  0.54778817  0.64924181  0.78641496    -0.19600
H2200       H  0.57749485  0.61477195  0.80972044     0.18200
H2201       H  0.59334327  0.70675278  0.83818845     0.18200
F2202       F  0.62234183  0.67183169  0.86226209    -0.19600
C2203       C  0.59115962  0.58013825  0.91995332    -0.21000
C2204       C  0.59425719  0.56894573  0.89482523    -0.09100
C2205       C  0.57955079  0.54619017  0.88855682     0.29800
C2206       C  0.56293513  0.53463960  0.90736899    -0.21000
C2207       C  0.56000093  0.54591407  0.93242775    -0.09100
C2208       C  0.57408198  0.56896447  0.93846934     0.29800
F2209       F  0.57198621  0.58028647  0.96261978    -0.19600
H2210       H  0.60241214  0.59729960  0.92563729     0.18200
H2211       H  0.55184504  0.51719859  0.90212583     0.18200
F2212       F  0.58047408  0.53547753  0.86408080    -0.19600
C2213       C  0.68078626  0.58318809  0.80493257    -0.21000
C2214       C  0.66753258  0.56807606  0.82418682    -0.09100
C2215       C  0.67710273  0.54244056  0.82932877     0.29800
C2216       C  0.69839390  0.53231783  0.81497159    -0.21000
C2217       C  0.71148409  0.54764215  0.79592549    -0.09100
C2218       C  0.70216695  0.57318566  0.79085711     0.29800
F2219       F  0.71422569  0.58907294  0.77301187    -0.19600
H2220       H  0.67551883  0.60354507  0.80154731     0.18200
H2221       H  0.70535810  0.51271678  0.81968307     0.18200
F2222       F  0.66753747  0.52760937  0.84938345    -0.19600
C2223       C  0.41206319  0.66436092  0.85455687    -0.21000
C2224       C  0.40489213  0.67174866  0.88011955    -0.09100
C2225       C  0.41913786  0.69183569  0.89287844     0.29800
C2226       C  0.43921641  0.70524183  0.87962161    -0.21000
C2227       C  0.44556293  0.69885408  0.85346299    -0.09100
C2228       C  0.43209990  0.67775696  0.84121812     0.29800
F2229       F  0.43748228  0.67055105  0.81600710    -0.19600
H2230       H  0.40131939  0.64897625  0.84442125     0.18200
H2231       H  0.44938881  0.72103315  0.88969973     0.18200
F2232       F  0.41353528  0.69866310  0.91814269    -0.19600
C2233       C  0.35018089  0.58483707  0.85833813    -0.21000
C2234       C  0.33844430  0.60980082  0.86000232    -0.09100
C2235       C  0.31831802  0.61636382  0.84188657     0.29800
C2236       C  0.30977089  0.59802325  0.82312339    -0.21000
C2237       C  0.32150924  0.57306827  0.82155652    -0.09100
C2238       C  0.34194789  0.56669182  0.83930030     0.29800
F2239       F  0.35352961  0.54260238  0.83871976    -0.19600
H2240       H  0.36536675  0.57905201  0.87220622     0.18200
H2241       H  0.29443436  0.60359306  0.80931874     0.18200
F2242       F  0.30737836  0.64074822  0.84175432    -0.19600
C2243       C  0.41746390  0.60680802  0.93107973    -0.21000
C2244       C  0.39027101  0.60518463  0.93601274    -0.09100
C2245       C  0.38106294  0.58719633  0.95500916     0.29800
C2246       C  0.39887849  0.57103605  0.96862746    -0.21000
C2247       C  0.42617831  0.57293538  0.96395644    -0.09100
C2248       C  0.43529664  0.59106024  0.94499762     0.29800
F2249       F  0.46141173  0.59309895  0.93933444    -0.19600
H2250       H  0.42501630  0.62071123  0.91673656     0.18200
H2251       H  0.39133407  0.55711036  0.98294721     0.18200
F2252       F  0.35484475  0.58486806  0.96001994    -0.19600
C2253       C  0.29992121  0.68913912  0.91928062    -0.21000
C2254       C  0.32213272  0.67827687  0.93207852    -0.09100
C2255       C  0.33048176  0.68986771  0.95596051     0.29800
C2256       C  0.31662606  0.71087397  0.96688339    -0.21000
C2257       C  0.29477941  0.72181748  0.95387913    -0.09100
C2258       C  0.28637755  0.71056747  0.93000277     0.29800
F2259       F  0.26553807  0.72064772  0.91652801    -0.19600
H2260       H  0.29367603  0.68227967  0.90013597     0.18200
H2261       H  0.32389932  0.71939525  0.98504806     0.18200
F2262       F  0.35315108  0.68221004  0.96799442    -0.19600
C2263       C  0.36526555  0.32028258  0.91620921    -0.21000
C2264       C  0.36344194  0.34348043  0.90110742    -0.09100
C2265       C  0.33999794  0.35831447  0.90232024     0.29800
C2266       C  0.31923860  0.35033919  0.91873391    -0.21000
C2267       C  0.32112551  0.32712484  0.93372271    -0.09100
C2268       C  0.34431619  0.31203712  0.93215460     0.29800
F2269       F  0.34718334  0.28985280  0.94681453    -0.19600
H2270       H  0.38313528  0.30858670  0.91597889     0.18200
H2271       H  0.30145432  0.36216979  0.91946169     0.18200
F2272       F  0.33662529  0.37994502  0.88698093    -0.19600
C2273       C  0.35769677  0.39471997  0.81693346    -0.21000
C2274       C  0.37819866  0.40295886  0.83341611    -0.09100
C2275       C  0.38645794  0.42928709  0.83278138     0.29800
C2276       C  0.37412555  0.44721069  0.81572126    -0.21000
C2277       C  0.35335621  0.43902313  0.79923679    -0.09100
C2278       C  0.34528343  0.41247468  0.80006192     0.29800
F2279       F  0.32583745  0.40339029  0.78407035    -0.19600
H2280       H  0.35166006  0.37426785  0.81678283     0.18200
H2281       H  0.38069424  0.46748065  0.81551452     0.18200
F2282       F  0.40706745  0.43733625  0.84783890    -0.19600
C2283       C  0.42122995  0.40831170  0.92576491    -0.21000
C2284       C  0.43569558  0.40015201  0.90357693    -0.09100
C2285       C  0.46090538  0.41108987  0.89931049     0.29800
C2286       C  0.47145880  0.42923530  0.91715835    -0.21000
C2287       C  0.45700674  0.43740818  0.93934677    -0.09100
C2288       C  0.43157665  0.42684205  0.94335896     0.29800
F2289       F  0.41676794  0.43404767  0.96447595    -0.19600
H2290       H  0.40190656  0.40013225  0.92975169     0.18200
H2291       H  0.49081520  0.43738642  0.91322697     0.18200
F2292       F  0.47503159  0.40514648  0.87736749    -0.19600
C2293       C  0.46347246  0.32629185  0.83039005    -0.21000
C2294       C  0.43610619  0.32503460  0.83510970    -0.09100
C2295       C  0.42072101  0.30835225  0.81897511     0.29800
C2296       C  0.43206233  0.29487006  0.79793196    -0.21000
C2297       C  0.45893017  0.29779108  0.79203633    -0.09100
C2298       C  0.47479069  0.31286461  0.80914182     0.29800
F2299       F  0.50107070  0.31574144  0.80474998    -0.19600
H2300       H  0.47617419  0.33896284  0.84175043     0.18200
H2301       H  0.41934497  0.28321723  0.78537784     0.18200
F2302       F  0.39413764  0.30681610  0.82203938    -0.19600
C2303       C  0.54421619  0.62432893  0.08117506    -0.21000
C2304       C  0.56425537  0.61623032  0.09856317    -0.09100
C2305       C  0.57069090  0.58936214  0.10002680     0.29800
C2306       C  0.55720308  0.57103965  0.08451978    -0.21000
C2307       C  0.53729044  0.57909769  0.06696941    -0.09100
C2308       C  0.53097083  0.60602513  0.06535248     0.29800
F2309       F  0.51159906  0.61460185  0.04897004    -0.19600
H2310       H  0.53884344  0.64491543  0.07980537     0.18200
H2311       H  0.56256811  0.55046052  0.08605882     0.18200
F2312       F  0.58930248  0.58059090  0.11715775    -0.19600
C2313       C  0.53864274  0.68706129  0.17333622    -0.21000
C2314       C  0.56593925  0.68894958  0.16837944    -0.09100
C2315       C  0.58119235  0.70533977  0.18492280     0.29800
C2316       C  0.56972317  0.71816116  0.20636209    -0.21000
C2317       C  0.54289487  0.71473317  0.21222575    -0.09100
C2318       C  0.52724030  0.69973970  0.19491244     0.29800
F2319       F  0.50102300  0.69629932  0.19930129    -0.19600
H2320       H  0.52596934  0.67449523  0.16187032     0.18200
H2321       H  0.58226122  0.72975789  0.21914609     0.18200
F2322       F  0.60770777  0.70742502  0.18163919    -0.19600
C2323       C  0.59405170  0.44014225  0.02481209    -0.21000
C2324       C  0.56896448  0.44207624  0.03640262    -0.09100
C2325       C  0.56378829  0.42792991  0.05968903     0.29800
C2326       C  0.58340043  0.41250675  0.07130679    -0.21000
C2327       C  0.60882291  0.41109733  0.06033607    -0.09100
C2328       C  0.61395503  0.42503040  0.03676481     0.29800
F2329       F  0.63839410  0.42498009  0.02580219    -0.19600
H2330       H  0.59856271  0.45120289  0.00710460     0.18200
H2331       H  0.57844203  0.40140336  0.08884574     0.18200
F2332       F  0.53957641  0.42883781  0.07116586    -0.19600
C2333       C  0.68384862  0.33770117  0.03631531    -0.21000
C2334       C  0.68099926  0.33970111  0.06386180    -0.09100
C2335       C  0.69418298  0.32107899  0.07985675     0.29800
C2336       C  0.70759031  0.29991860  0.06862545    -0.21000
C2337       C  0.70842861  0.29674235  0.04118392    -0.09100
C2338       C  0.69731570  0.31646620  0.02507636     0.29800
F2339       F  0.69889785  0.31506476  0.99838656    -0.19600
H2340       H  0.67507963  0.35176759  0.02304656     0.18200
H2341       H  0.71639330  0.28540340  0.08157670     0.18200
F2342       F  0.69270515  0.32241063  0.10656660    -0.19600
C2343       C  0.05412546  0.57273469  0.41598490    -0.21000
C2344       C  0.03742223  0.58148029  0.43631970    -0.09100
C2345       C  0.03311568  0.60871147  0.43925460     0.29800
C2346       C  0.04518937  0.62661683  0.42192889    -0.21000
C2347       C  0.06215546  0.61767313  0.40191780    -0.09100
C2348       C  0.06648081  0.59054335  0.39910329     0.29800
F2349       F  0.08207431  0.58108562  0.37951677    -0.19600
H2350       H  0.05790556  0.55193566  0.41324471     0.18200
H2351       H  0.04154717  0.64748272  0.42429203     0.18200
F2352       F  0.01693089  0.61798444  0.45845091    -0.19600
C2353       C  0.06947896  0.71318387  0.28808371    -0.21000
C2354       C  0.04197538  0.71543121  0.28618620    -0.09100
C2355       C  0.02621521  0.70523593  0.30665310     0.29800
C2356       C  0.03775058  0.69151226  0.32762839    -0.21000
C2357       C  0.06524870  0.68750075  0.32855116    -0.09100
C2358       C  0.08101018  0.69946902  0.30890131     0.29800
F2359       F  0.10765169  0.69639230  0.30884280    -0.19600
H2360       H  0.08215515  0.72104975  0.27278020     0.18200
H2361       H  0.02472921  0.68341648  0.34234481     0.18200
F2362       F  0.99957540  0.70812687  0.30625585    -0.19600
C2363       C  0.89179952  0.42282492  0.68541555    -0.21000
C2364       C  0.87949988  0.40986894  0.66421719    -0.09100
C2365       C  0.85447238  0.41834889  0.65595830     0.29800
C2366       C  0.84174004  0.43880071  0.66925816    -0.21000
C2367       C  0.85357229  0.45112314  0.69116191    -0.09100
C2368       C  0.87902834  0.44314640  0.69884942     0.29800
F2369       F  0.89139843  0.45439622  0.71972117    -0.19600
H2370       H  0.91132798  0.41698357  0.69185634     0.18200
H2371       H  0.82215275  0.44441909  0.66280334     0.18200
F2372       F  0.84160182  0.40598132  0.63605610    -0.19600
C2373       C  0.96188141  0.40957756  0.60243063    -0.21000
C2374       C  0.93645848  0.39979496  0.59678090    -0.09100
C2375       C  0.92377694  0.40860647  0.57374005     0.29800
C2376       C  0.93586764  0.42709653  0.55730220    -0.21000
C2377       C  0.96112915  0.43698529  0.56302424    -0.09100
C2378       C  0.97420817  0.42778176  0.58568786     0.29800
F2379       F  0.99850201  0.43695707  0.59218395    -0.19600
H2380       H  0.97211783  0.40358336  0.62018381     0.18200
H2381       H  0.92545452  0.43346857  0.53976243     0.18200
F2382       F  0.90006779  0.39883144  0.56640295    -0.19600
C2383       C  0.92569273  0.30609103  0.67787106    -0.21000
C2384       C  0.93608890  0.33030570  0.66901174    -0.09100
C2385       C  0.95826788  0.34064053  0.68231687     0.29800
C2386       C  0.96948334  0.32723222  0.70353489    -0.21000
C2387       C  0.95853345  0.30360400  0.71273787    -0.09100
C2388       C  0.93676821  0.29287800  0.69939251     0.29800
F2389       F  0.92577138  0.26987278  0.70741286    -0.19600
H2390       H  0.90800459  0.29781552  0.66944973     0.18200
H2391       H  0.98610359  0.33609801  0.71359115     0.18200
F2392       F  0.96808214  0.36470692  0.67609013    -0.19600
C2393       C  0.90502393  0.43544454  0.41641381    -0.21000
C2394       C  0.90521899  0.44272080  0.38971360    -0.09100
C2395       C  0.92240154  0.46289467  0.38141284     0.29800
C2396       C  0.93900242  0.47541475  0.39966074    -0.21000
C2397       C  0.93825606  0.46843767  0.42647844    -0.09100
C2398       C  0.92120106  0.44817624  0.43462885     0.29800
F2399       F  0.92053165  0.44026041  0.46020519    -0.19600
H2400       H  0.89183181  0.42020222  0.42341452     0.18200
H2401       H  0.95211463  0.49085257  0.39293250     0.18200
F2402       F  0.92344394  0.47023591  0.35569314    -0.19600
C2403       C  0.83943490  0.58573194  0.63553376    -0.21000
C2404       C  0.83163174  0.61214688  0.63457342    -0.09100
C2405       C  0.81395675  0.62162653  0.65384679     0.29800
C2406       C  0.80400204  0.60474537  0.67338873    -0.21000
C2407       C  0.81102624  0.57800050  0.67376339    -0.09100
C2408       C  0.82912293  0.56873691  0.65470309     0.29800
F2409       F  0.83727268  0.54328818  0.65481392    -0.19600
H2410       H  0.85300775  0.57804263  0.62092688     0.18200
H2411       H  0.79047209  0.61250287  0.68798947     0.18200
F2412       F  0.80652935  0.64729390  0.65394491    -0.19600
C2413       C  0.88074006  0.58740095  0.54292306    -0.21000
C2414       C  0.88890601  0.60628520  0.56138963    -0.09100
C2415       C  0.91597089  0.60833214  0.56733202     0.29800
C2416       C  0.93438188  0.59197881  0.55487008    -0.21000
C2417       C  0.92627049  0.57286115  0.53658791    -0.09100
C2418       C  0.89913185  0.57060827  0.53085672     0.29800
F2419       F  0.89038574  0.55253093  0.51324132    -0.19600
H2420       H  0.86002323  0.58550998  0.53800858     0.18200
H2421       H  0.95507290  0.59407211  0.55982668     0.18200
F2422       F  0.92484535  0.62670119  0.58456790    -0.19600
C2423       C  0.09986740  0.40550878  0.46415086    -0.21000
C2424       C  0.11203462  0.41269715  0.44023352    -0.09100
C2425       C  0.10639846  0.43748446  0.42941888     0.29800
C2426       C  0.08784299  0.45400275  0.44135166    -0.21000
C2427       C  0.07486198  0.44647374  0.46469308    -0.09100
C2428       C  0.08156300  0.42225444  0.47639956     0.29800
F2429       F  0.06958046  0.41419092  0.49894237    -0.19600
H2430       H  0.10396211  0.38652587  0.47298262     0.18200
H2431       H  0.08362065  0.47284350  0.43226834     0.18200
F2432       F  0.11934019  0.44616223  0.40775018    -0.19600
C2433       C  0.08304721  0.53106963  0.58341539    -0.21000
C2434       C  0.06140950  0.54525599  0.57348832    -0.09100
C2435       C  0.05665497  0.57073266  0.58328719     0.29800
C2436       C  0.07338068  0.58176606  0.60214741    -0.21000
C2437       C  0.09552392  0.56803942  0.61160517    -0.09100
C2438       C  0.10012326  0.54232971  0.60200367     0.29800
F2439       F  0.12183362  0.52846771  0.60925620    -0.19600
H2440       H  0.08733470  0.51151941  0.57608424     0.18200
H2441       H  0.06889598  0.60131365  0.60911864     0.18200
F2442       F  0.03574581  0.58513066  0.57474738    -0.19600
C2443       C  0.17704946  0.57908321  0.70412066    -0.21000
C2444       C  0.17123772  0.57181494  0.67791081    -0.09100
C2445       C  0.18728767  0.55251206  0.66590456     0.29800
C2446       C  0.20945132  0.54254518  0.67883610    -0.21000
C2447       C  0.21614277  0.55109824  0.70428397    -0.09100
C2448       C  0.19915099  0.56886293  0.71716553     0.29800
F2449       F  0.20431865  0.57724644  0.74203882    -0.19600
H2450       H  0.16547708  0.59343536  0.71461481     0.18200
H2451       H  0.22171722  0.52841629  0.66856191     0.18200
F2452       F  0.18251459  0.54447056  0.64082511    -0.19600
C2453       C  0.96753161  0.69060213  0.79091959    -0.21000
C2454       C  0.95712495  0.71504921  0.78324319    -0.09100
C2455       C  0.93739285  0.72665419  0.79887436     0.29800
C2456       C  0.92718613  0.71324461  0.82065405    -0.21000
C2457       C  0.93642048  0.68792579  0.82750394    -0.09100
C2458       C  0.95737003  0.67717645  0.81265279     0.29800
F2459       F  0.96669594  0.65266465  0.81785965    -0.19600
H2460       H  0.98303160  0.68130472  0.77952605     0.18200
H2461       H  0.91088918  0.72243023  0.83070518     0.18200
F2462       F  0.92674378  0.75029770  0.79233601    -0.19600
C2463       C  0.02710115  0.82563602  0.79360020    -0.21000
C2464       C  0.03871592  0.80272046  0.78347336    -0.09100
C2465       C  0.06050436  0.79175788  0.79666924     0.29800
C2466       C  0.07115713  0.80428077  0.81875705    -0.21000
C2467       C  0.06037539  0.82808180  0.82824458    -0.09100
C2468       C  0.03784910  0.83832186  0.81543935     0.29800
F2469       F  0.02728654  0.86175144  0.82277647    -0.19600
H2470       H  0.01028904  0.83453946  0.78385758     0.18200
H2471       H  0.08880368  0.79582143  0.82708205     0.18200
F2472       F  0.07195782  0.76922202  0.78796066    -0.19600
C2473       C  0.07441159  0.64408366  0.65769886    -0.21000
C2474       C  0.10096382  0.64361015  0.66541436    -0.09100
C2475       C  0.11036778  0.66363656  0.68216109     0.29800
C2476       C  0.09338872  0.68354604  0.69105033    -0.21000
C2477       C  0.06662873  0.68363992  0.68383601    -0.09100
C2478       C  0.05733513  0.66371992  0.66686438     0.29800
F2479       F  0.03181779  0.66344079  0.65868360    -0.19600
H2480       H  0.06664802  0.62884123  0.64506945     0.18200
H2481       H  0.10110360  0.69871773  0.70388717     0.18200
F2482       F  0.13608186  0.66419935  0.68964121    -0.19600
C2483       C  0.90773074  0.66476993  0.64057489    -0.21000
C2484       C  0.89915256  0.67353469  0.61586606    -0.09100
C2485       C  0.91241951  0.69471404  0.60367631     0.29800
C2486       C  0.93252201  0.70796684  0.61689857    -0.21000
C2487       C  0.94015593  0.70019130  0.64230391    -0.09100
C2488       C  0.92808041  0.67782958  0.65371875     0.29800
F2489       F  0.93534012  0.66885980  0.67787894    -0.19600
H2490       H  0.89804234  0.64837572  0.65019914     0.18200
H2491       H  0.94175345  0.72467726  0.60736704     0.18200
F2492       F  0.90609347  0.70265532  0.57890117    -0.19600
C2493       C  0.70706824  0.21487564  0.56948711    -0.21000
C2494       C  0.70258329  0.22246961  0.54333120    -0.09100
C2495       C  0.68506142  0.20767138  0.52784386     0.29800
C2496       C  0.67203427  0.18587391  0.53851881    -0.21000
C2497       C  0.67601421  0.17827678  0.56498731    -0.09100
C2498       C  0.69350014  0.19356575  0.58044939     0.29800
F2499       F  0.69622486  0.18914175  0.60670638    -0.19600
H2500       H  0.72005270  0.22636467  0.58193173     0.18200
H2501       H  0.65771561  0.17608014  0.52621463     0.18200
F2502       F  0.68017266  0.21450702  0.50241680    -0.19600
C2503       C  0.63396672  0.34831163  0.42379906    -0.21000
C2504       C  0.63577758  0.34454804  0.39652952    -0.09100
C2505       C  0.65723979  0.33029140  0.38624451     0.29800
C2506       C  0.67649323  0.31980904  0.40310265    -0.21000
C2507       C  0.67436802  0.32281720  0.43057004    -0.09100
C2508       C  0.65284883  0.33737643  0.44074882     0.29800
F2509       F  0.65010676  0.34135998  0.46707946    -0.19600
H2510       H  0.61744781  0.35908999  0.43203851     0.18200
H2511       H  0.69286993  0.30898884  0.39467425     0.18200
F2512       F  0.65959072  0.32659972  0.35984163    -0.19600
C2513       C  0.85083195  0.36074454  0.58242286    -0.21000
C2514       C  0.86100672  0.34369171  0.60178014    -0.09100
C2515       C  0.84886503  0.31860236  0.60434815     0.29800
C2516       C  0.82888107  0.31062422  0.58695929    -0.21000
C2517       C  0.81951769  0.32756657  0.56725795    -0.09100
C2518       C  0.83048151  0.35300093  0.56554310     0.29800
F2519       F  0.82197192  0.37050838  0.54716491    -0.19600
H2520       H  0.85845765  0.38030051  0.57983102     0.18200
H2521       H  0.82030203  0.29125171  0.58933375     0.18200
F2522       F  0.85511891  0.30186141  0.62420217    -0.19600
C2523       C  0.69274245  0.38773058  0.56131718    -0.21000
C2524       C  0.68959141  0.36056668  0.55745448    -0.09100
C2525       C  0.67195760  0.34659590  0.57391796     0.29800
C2526       C  0.65867563  0.35941879  0.59418162    -0.21000
C2527       C  0.66227241  0.38624849  0.59838592    -0.09100
C2528       C  0.67915568  0.40053711  0.58158748     0.29800
F2529       F  0.68279919  0.42676256  0.58510271    -0.19600
H2530       H  0.70603711  0.39900431  0.54891742     0.18200
H2531       H  0.64665654  0.34791281  0.60758465     0.18200
F2532       F  0.66843448  0.32024415  0.57142139    -0.19600
C2533       C  0.82420566  0.34666767  0.42485272    -0.21000
C2534       C  0.80581740  0.36064711  0.44031149    -0.09100
C2535       C  0.80541127  0.38826884  0.43888005     0.29800
C2536       C  0.82139350  0.40128273  0.42058336    -0.21000
C2537       C  0.83833250  0.38705242  0.40392066    -0.09100
C2538       C  0.84050100  0.35976548  0.40691928     0.29800
F2539       F  0.85671112  0.34558129  0.39102835    -0.19600
H2540       H  0.82533051  0.32541241  0.42596750     0.18200
H2541       H  0.81967105  0.42243436  0.41850833     0.18200
F2542       F  0.78838294  0.40257048  0.45376745    -0.19600
C2543       C  0.15504523  0.92795601  0.63914781    -0.21000
C2544       C  0.16507577  0.90231671  0.63725860    -0.09100
C2545       C  0.18381230  0.89369665  0.65592744     0.29800
C2546       C  0.19290847  0.91080532  0.67548820    -0.21000
C2547       C  0.18374146  0.93681107  0.67660778    -0.09100
C2548       C  0.16430829  0.94512286  0.65855814     0.29800
F2549       F  0.15392576  0.96971899  0.65994635    -0.19600
H2550       H  0.14053203  0.93498550  0.62512682     0.18200
H2551       H  0.20749616  0.90386717  0.68948258     0.18200
F2552       F  0.19315787  0.86866567  0.65546622    -0.19600
C2553       C  0.08229426  0.82476934  0.60294949    -0.21000
C2554       C  0.09772217  0.84294292  0.61700782    -0.09100
C2555       C  0.09213987  0.84781485  0.64360532     0.29800
C2556       C  0.07279222  0.83307064  0.65645832    -0.21000
C2557       C  0.05849674  0.81361834  0.64285703    -0.09100
C2558       C  0.06262008  0.81031991  0.61568587     0.29800
F2559       F  0.04908260  0.79186514  0.60189543    -0.19600
H2560       H  0.08620935  0.82106673  0.58227567     0.18200
H2561       H  0.06963818  0.83618815  0.67735713     0.18200
F2562       F  0.10671888  0.86526982  0.65764870    -0.19600
C2563       C  0.10123714  0.94501965  0.53210338    -0.21000
C2564       C  0.07414835  0.94260128  0.53783462    -0.09100
C2565       C  0.06600634  0.92315765  0.55590066     0.29800
C2566       C  0.08452926  0.90670865  0.56792703    -0.21000
C2567       C  0.11149165  0.90893923  0.56203598    -0.09100
C2568       C  0.11976542  0.92813887  0.54385692     0.29800
F2569       F  0.14575010  0.93101265  0.53800315    -0.19600
H2570       H  0.10804943  0.95988961  0.51838755     0.18200
H2571       H  0.07768789  0.89192391  0.58173127     0.18200
F2572       F  0.04019313  0.92046804  0.56258959    -0.19600
C2573       C  0.15920816  0.07931337  0.67097517    -0.21000
C2574       C  0.14505349  0.06580161  0.69077229    -0.09100
C2575       C  0.11866018  0.07297829  0.69550292     0.29800
C2576       C  0.10719428  0.09364215  0.68129632    -0.21000
C2577       C  0.12174846  0.10768685  0.66226789    -0.09100
C2578       C  0.14777134  0.10008495  0.65698611     0.29800
F2579       F  0.16281506  0.11379431  0.63971648    -0.19600
H2580       H  0.17962529  0.07448050  0.66687042     0.18200
H2581       H  0.08696886  0.09911654  0.68558722     0.18200
F2582       F  0.10406049  0.06053201  0.71416691    -0.19600
C2583       C  0.07498124  0.09250938  0.59501060    -0.21000
C2584       C  0.06411318  0.11781216  0.59777093    -0.09100
C2585       C  0.04042444  0.12360021  0.58423657     0.29800
C2586       C  0.02823271  0.10447127  0.56837748    -0.21000
C2587       C  0.03968629  0.07949510  0.56514806    -0.09100
C2588       C  0.06322281  0.07374529  0.57872310     0.29800
F2589       F  0.07475143  0.04971253  0.57663151    -0.19600
H2590       H  0.09254612  0.08687969  0.60575755     0.18200
H2591       H  0.01030323  0.10949642  0.55788285     0.18200
F2592       F  0.02948802  0.14794154  0.58543006    -0.19600
C2593       C  0.07488572  0.21422484  0.67489680    -0.21000
C2594       C  0.06736820  0.18811382  0.66914023    -0.09100
C2595       C  0.04759218  0.17641554  0.68486300     0.29800
C2596       C  0.03669121  0.18983538  0.70612522    -0.21000
C2597       C  0.04516602  0.21526732  0.71266078    -0.09100
C2598       C  0.06397185  0.22764815  0.69641191     0.29800
F2599       F  0.07276003  0.25226983  0.70187965    -0.19600
H2600       H  0.09008578  0.22421449  0.66391919     0.18200
H2601       H  0.02201845  0.17981296  0.71798743     0.18200
F2602       F  0.03991977  0.15115976  0.68074834    -0.19600
C2603       C  0.10128179  0.07734328  0.41693014    -0.21000
C2604       C  0.09990483  0.06960460  0.39042940    -0.09100
C2605       C  0.08163485  0.05009503  0.38307502     0.29800
C2606       C  0.06504885  0.03866530  0.40197463    -0.21000
C2607       C  0.06675028  0.04604574  0.42859362    -0.09100
C2608       C  0.08509312  0.06555621  0.43592046     0.29800
F2609       F  0.08703244  0.07366546  0.46134790    -0.19600
H2610       H  0.11533891  0.09217625  0.42306076     0.18200
H2611       H  0.05107100  0.02376656  0.39584197     0.18200
F2612       F  0.07947067  0.04239793  0.35755093    -0.19600
C2613       C  0.20822164  0.07111038  0.28805387    -0.21000
C2614       C  0.21276759  0.04398907  0.29036644    -0.09100
C2615       C  0.19481110  0.02867267  0.30500724     0.29800
C2616       C  0.17385302  0.04062353  0.31839993    -0.21000
C2617       C  0.17035894  0.06812787  0.31760894    -0.09100
C2618       C  0.18749870  0.08307158  0.30152970     0.29800
F2619       F  0.18539945  0.10968027  0.30027968    -0.19600
H2620       H  0.22148948  0.08345515  0.27675553     0.18200
H2621       H  0.16156650  0.02812501  0.33039860     0.18200
F2622       F  0.19790796  0.00222871  0.30722055    -0.19600
C2623       C  0.90591048  0.87190096  0.68719540    -0.21000
C2624       C  0.89645701  0.87343570  0.66102242    -0.09100
C2625       C  0.90384033  0.85319787  0.64344363     0.29800
C2626       C  0.92017070  0.83256212  0.65180469    -0.21000
C2627       C  0.92951362  0.83113827  0.67788820    -0.09100
C2628       C  0.92190406  0.85098992  0.69562661     0.29800
F2629       F  0.93056851  0.85077772  0.72094828    -0.19600
H2630       H  0.90147012  0.88720642  0.70130880     0.18200
H2631       H  0.92548632  0.81751424  0.63765233     0.18200
F2632       F  0.89509193  0.85266231  0.61822253    -0.19600
C2633       C  0.89684618  0.97493499  0.59836453    -0.21000
C2634       C  0.90238560  0.94997025  0.60914146    -0.09100
C2635       C  0.92627255  0.93760530  0.60240774     0.29800
C2636       C  0.94354991  0.94939130  0.58445073    -0.21000
C2637       C  0.93770024  0.97393473  0.57298132    -0.09100
C2638       C  0.91433225  0.98689603  0.58053281     0.29800
F2639       F  0.90773817  0.01047289  0.56979320    -0.19600
H2640       H  0.87850316  0.98484488  0.60303852     0.18200
H2641       H  0.96162581  0.93915320  0.57941965     0.18200
F2642       F  0.93321219  0.91425588  0.61342161    -0.19600
C2643       C  0.82206763  0.93943186  0.70201236    -0.21000
C2644       C  0.82753072  0.94697448  0.67576623    -0.09100
C2645       C  0.81223840  0.96741018  0.66458516     0.29800
C2646       C  0.79135927  0.97863895  0.67856537    -0.21000
C2647       C  0.78492681  0.96970679  0.70391713    -0.09100
C2648       C  0.80092390  0.95052585  0.71584484     0.29800
F2649       F  0.79604164  0.94232259  0.74086534    -0.19600
H2650       H  0.83312136  0.92431306  0.71196539     0.18200
H2651       H  0.77943566  0.99356754  0.66901645     0.18200
F2652       F  0.81647266  0.97549496  0.63939938    -0.19600
C2653       C  0.90238660  0.11043753  0.46210597    -0.21000
C2654       C  0.89185434  0.10469911  0.43707809    -0.09100
C2655       C  0.90057818  0.08182017  0.42406900     0.29800
C2656       C  0.91970962  0.06553823  0.43565166    -0.21000
C2657       C  0.93032772  0.07137240  0.46062169    -0.09100
C2658       C  0.92126322  0.09400094  0.47381910     0.29800
F2659       F  0.93124264  0.10081008  0.49768595    -0.19600
H2660       H  0.89653338  0.12812944  0.47244618     0.18200
H2661       H  0.92600566  0.04808853  0.42513604     0.18200
F2662       F  0.89020174  0.07469854  0.40047004    -0.19600
C2663       C  0.82195996  0.18202137  0.46288768    -0.21000
C2664       C  0.82090432  0.17761727  0.43546826    -0.09100
C2665       C  0.80511967  0.19470540  0.42008858     0.29800
C2666       C  0.79138301  0.21551917  0.43167205    -0.21000
C2667       C  0.79334760  0.22048924  0.45881176    -0.09100
C2668       C  0.80842797  0.20311628  0.47443228     0.29800
F2669       F  0.81102410  0.20694567  0.50079284    -0.19600
H2670       H  0.83437603  0.17030258  0.47556496     0.18200
H2671       H  0.78002532  0.22845081  0.41902645     0.18200
F2672       F  0.80418196  0.19235778  0.39344016    -0.19600
C2673       C  0.95196331  0.89020258  0.42407813    -0.21000
C2674       C  0.93902162  0.89911426  0.40129446    -0.09100
C2675       C  0.93857423  0.92620035  0.39585389     0.29800
C2676       C  0.95112225  0.94401373  0.41274988    -0.21000
C2677       C  0.96393964  0.93533459  0.43580983    -0.09100
C2678       C  0.96402648  0.90808959  0.44140586     0.29800
F2679       F  0.97585650  0.89863901  0.46348236    -0.19600
H2680       H  0.95236714  0.86938137  0.42864239     0.18200
H2681       H  0.95043925  0.96476226  0.40791404     0.18200
F2682       F  0.92639434  0.93543486  0.37387654    -0.19600
C2683       C  0.96170362  0.82880506  0.32359686    -0.21000
C2684       C  0.93470839  0.82700641  0.33007006    -0.09100
C2685       C  0.91845658  0.81081662  0.31413141     0.29800
C2686       C  0.92886410  0.79738735  0.29246806    -0.21000
C2687       C  0.95533626  0.80058758  0.28537972    -0.09100
C2688       C  0.97186645  0.81586885  0.30145836     0.29800
F2689       F  0.99781721  0.81874588  0.29542849    -0.19600
H2690       H  0.97486293  0.84151627  0.33440272     0.18200
H2691       H  0.91579806  0.78577355  0.28022346     0.18200
F2692       F  0.89198209  0.80956571  0.31811166    -0.19600
C2693       C  0.67683027  0.71882516  0.46308473    -0.21000
C2694       C  0.70324469  0.72388968  0.45640963    -0.09100
C2695       C  0.71710689  0.70499305  0.44155810     0.29800
C2696       C  0.70420209  0.68263684  0.43201054    -0.21000
C2697       C  0.67710805  0.67858253  0.43689954    -0.09100
C2698       C  0.66397056  0.69648198  0.45368157     0.29800
F2699       F  0.63802289  0.69328115  0.45963442    -0.19600
H2700       H  0.66573405  0.73255630  0.47507752     0.18200
H2701       H  0.71565661  0.66934770  0.42009193     0.18200
F2702       F  0.74302133  0.70828942  0.43559552    -0.19600
C2703       C  0.79067126  0.71840090  0.56548157    -0.21000
C2704       C  0.79210697  0.72262064  0.53818940    -0.09100
C2705       C  0.80523961  0.70384471  0.52248868     0.29800
C2706       C  0.81785330  0.68222441  0.53414483    -0.21000
C2707       C  0.81780808  0.67884952  0.56173349    -0.09100
C2708       C  0.80337596  0.69702947  0.57713897     0.29800
F2709       F  0.80311880  0.69527143  0.60386284    -0.19600
H2710       H  0.78060772  0.73232295  0.57814407     0.18200
H2711       H  0.82871738  0.66920705  0.52135017     0.18200
F2712       F  0.80659336  0.70663749  0.49589534    -0.19600
C2713       C  0.67424365  0.81680275  0.59188786    -0.21000
C2714       C  0.67408133  0.82403453  0.56518663    -0.09100
C2715       C  0.65485494  0.84206074  0.55622019     0.29800
C2716       C  0.63606568  0.85228535  0.57366696    -0.21000
C2717       C  0.63580668  0.84439342  0.60013077    -0.09100
C2718       C  0.65516617  0.82665941  0.60918067     0.29800
F2719       F  0.65575200  0.81900775  0.63483152    -0.19600
H2720       H  0.68895786  0.80321513  0.59931861     0.18200
H2721       H  0.62125250  0.86583126  0.56634163     0.18200
F2722       F  0.65447228  0.85020236  0.53071049    -0.19600
C2723       C  0.83695643  0.85109171  0.43754492    -0.21000
C2724       C  0.82120785  0.82931028  0.43089218    -0.09100
C2725       C  0.82642984  0.81586538  0.40729772     0.29800
C2726       C  0.84703531  0.82413126  0.39081723    -0.21000
C2727       C  0.86324738  0.84561437  0.39773575    -0.09100
C2728       C  0.85789186  0.85902687  0.42140073     0.29800
F2729       F  0.87349514  0.87902611  0.42973585    -0.19600
H2730       H  0.83347572  0.86165998  0.45576201     0.18200
H2731       H  0.85017707  0.81369977  0.37248365     0.18200
F2732       F  0.81124405  0.79519172  0.39981825    -0.19600
C2733       C  0.81626806  0.85028757  0.57988738    -0.21000
C2734       C  0.80260903  0.86379538  0.55980091    -0.09100
C2735       C  0.80589282  0.89124107  0.55758865     0.29800
C2736       C  0.82169587  0.90473878  0.57575000    -0.21000
C2737       C  0.83460116  0.89111812  0.59609850    -0.09100
C2738       C  0.83189672  0.86380044  0.59796997     0.29800
F2739       F  0.84264399  0.85042383  0.61849019    -0.19600
H2740       H  0.81422153  0.82920599  0.58222288     0.18200
H2741       H  0.82311509  0.92597530  0.57456125     0.18200
F2742       F  0.79301074  0.90520027  0.53873103    -0.19600
C2743       C  0.68132324  0.90589034  0.41453537    -0.21000
C2744       C  0.66074022  0.89318009  0.40095270    -0.09100
C2745       C  0.65387227  0.86746026  0.40810127     0.29800
C2746       C  0.66824101  0.85429717  0.42756241    -0.21000
C2747       C  0.68980522  0.86644382  0.44024755    -0.09100
C2748       C  0.69579484  0.89272599  0.43394651     0.29800
F2749       F  0.71601942  0.90553442  0.44588345    -0.19600
H2750       H  0.68667613  0.92593202  0.40959946     0.18200
H2751       H  0.66294286  0.83414069  0.43201745     0.18200
F2752       F  0.63451350  0.85436092  0.39511114    -0.19600
C2753       C  0.70529508  0.97736302  0.31807886    -0.21000
C2754       C  0.71379025  0.96648495  0.29406563    -0.09100
C2755       C  0.69806549  0.94700998  0.28218088     0.29800
C2756       C  0.67548420  0.93750435  0.29490262    -0.21000
C2757       C  0.66780117  0.94712658  0.31986157    -0.09100
C2758       C  0.68263293  0.96798823  0.33075673     0.29800
F2759       F  0.67635406  0.97805801  0.35474432    -0.19600
H2760       H  0.71659651  0.99278655  0.32751019     0.18200
H2761       H  0.66532524  0.92149031  0.28545949     0.18200
F2762       F  0.70512109  0.93604317  0.25881823    -0.19600
C2763       C  0.71262736  0.07688830  0.20314153    -0.21000
C2764       C  0.71458200  0.04953063  0.20576273    -0.09100
C2765       C  0.69424937  0.03363158  0.19558116     0.29800
C2766       C  0.67333126  0.04490791  0.18156218    -0.21000
C2767       C  0.67229033  0.07227554  0.17730290    -0.09100
C2768       C  0.69188346  0.08815472  0.18910671     0.29800
F2769       F  0.69185957  0.11466758  0.18573517    -0.19600
H2770       H  0.72784254  0.08964613  0.21095724     0.18200
H2771       H  0.65879420  0.03176675  0.17343269     0.18200
F2772       F  0.69472674  0.00710539  0.19874314    -0.19600
C2773       C  0.82500553  0.10189487  0.31777848    -0.21000
C2774       C  0.81509943  0.07676256  0.32416977    -0.09100
C2775       C  0.81600894  0.06859631  0.35081208     0.29800
C2776       C  0.82633203  0.08515008  0.37028762    -0.21000
C2777       C  0.83612900  0.11006103  0.36380247    -0.09100
C2778       C  0.83543268  0.11840325  0.33739493     0.29800
F2779       F  0.84445258  0.14263416  0.33066095    -0.19600
H2780       H  0.82485666  0.10873811  0.29754597     0.18200
H2781       H  0.82644128  0.07860516  0.39063187     0.18200
F2782       F  0.80666535  0.04470236  0.35826739    -0.19600
C2783       C  0.84843193  0.93057872  0.13850952    -0.21000
C2784       C  0.83467512  0.90711554  0.13367885    -0.09100
C2785       C  0.81275522  0.90105639  0.14991753     0.29800
C2786       C  0.80470680  0.91838994  0.16992839    -0.21000
C2787       C  0.81870032  0.94169769  0.17478987    -0.09100
C2788       C  0.84077260  0.94753079  0.15886010     0.29800
F2789       F  0.85471433  0.97002732  0.16252642    -0.19600
H2790       H  0.86499283  0.93618139  0.12624653     0.18200
H2791       H  0.78796105  0.91318839  0.18215528     0.18200
F2792       F  0.79959530  0.87797005  0.14724927    -0.19600
C2793       C  0.84370698  0.93646666  0.32709587    -0.21000
C2794       C  0.85615752  0.94947112  0.30589867    -0.09100
C2795       C  0.88226713  0.94255250  0.29939459     0.29800
C2796       C  0.89512148  0.92258982  0.31332762    -0.21000
C2797       C  0.88228255  0.90915686  0.33390679    -0.09100
C2798       C  0.85658122  0.91649378  0.34094538     0.29800
F2799       F  0.84332365  0.90338663  0.36015716    -0.19600
H2800       H  0.82359081  0.94118851  0.33257692     0.18200
H2801       H  0.91511765  0.91737767  0.30782054     0.18200
F2802       F  0.89528994  0.95464519  0.27936834    -0.19600
C2803       C  0.84202803  0.08367903  0.17395260    -0.21000
C2804       C  0.85539915  0.06891261  0.19333644    -0.09100
C2805       C  0.88277209  0.07217657  0.19623538     0.29800
C2806       C  0.89602941  0.09114214  0.18128982    -0.21000
C2807       C  0.88235331  0.10684192  0.16296502    -0.09100
C2808       C  0.85541212  0.10234604  0.15870355     0.29800
F2809       F  0.84166877  0.11725094  0.14122065    -0.19600
H2810       H  0.82097008  0.08129490  0.17112376     0.18200
H2811       H  0.91691523  0.09423676  0.18465877     0.18200
F2812       F  0.89640107  0.05835535  0.21466925    -0.19600
C2813       C  0.06976014  0.29931625  0.20825165    -0.21000
C2814       C  0.04346733  0.30278348  0.21575228    -0.09100
C2815       C  0.02689187  0.31869010  0.20022739     0.29800
C2816       C  0.03685745  0.33157958  0.17790753    -0.21000
C2817       C  0.06367273  0.32914554  0.17089710    -0.09100
C2818       C  0.07995586  0.31268030  0.18654433     0.29800
F2819       F  0.10632685  0.31091137  0.18207668    -0.19600
H2820       H  0.08287610  0.28730566  0.22010633     0.18200
H2821       H  0.02374101  0.34452157  0.16726471     0.18200
F2822       F  0.00111459  0.32198508  0.20678912    -0.19600
C2823       C  0.93325032  0.21443969  0.20937618    -0.21000
C2824       C  0.96069178  0.21384662  0.21301268    -0.09100
C2825       C  0.97640742  0.20108195  0.19397878     0.29800
C2826       C  0.96471689  0.18813475  0.17261939    -0.21000
C2827       C  0.93706171  0.18741141  0.16976185    -0.09100
C2828       C  0.92155255  0.20133513  0.18826569     0.29800
F2829       F  0.89478011  0.20093074  0.18692612    -0.19600
H2830       H  0.92056044  0.22416426  0.22353817     0.18200
H2831       H  0.97762333  0.17769837  0.15935955     0.18200
F2832       F  0.00309366  0.20035835  0.19629413    -0.19600
C2833       C  0.09061273  0.17636707  0.30206915    -0.21000
C2834       C  0.06799117  0.18187815  0.31706990    -0.09100
C2835       C  0.06261525  0.16621452  0.33939012     0.29800
C2836       C  0.07964311  0.14578171  0.34660633    -0.21000
C2837       C  0.10261167  0.14054663  0.33203163    -0.09100
C2838       C  0.10794882  0.15615845  0.30955982     0.29800
F2839       F  0.13039976  0.15274694  0.29536299    -0.19600
H2840       H  0.09532381  0.18825556  0.28496275     0.18200
H2841       H  0.07456053  0.13383348  0.36354382     0.18200
F2842       F  0.04055014  0.17027578  0.35404662    -0.19600
C2843       C  0.92388133  0.36596998  0.34567877    -0.21000
C2844       C  0.89777229  0.36736638  0.33666222    -0.09100
C2845       C  0.88872971  0.34834424  0.31859123     0.29800
C2846       C  0.90588370  0.32894326  0.30906730    -0.21000
C2847       C  0.93237469  0.32837133  0.31710513    -0.09100
C2848       C  0.94109733  0.34676983  0.33595971     0.29800
F2849       F  0.96621032  0.34600949  0.34527761    -0.19600
H2850       H  0.93122798  0.38027003  0.35968680     0.18200
H2851       H  0.89859838  0.31470010  0.29496956     0.18200
F2852       F  0.86326839  0.34838497  0.31025976    -0.19600
C2853       C  0.93786013  0.20481801  0.38179528    -0.21000
C2854       C  0.94144288  0.20124969  0.35462097    -0.09100
C2855       C  0.92660932  0.18176880  0.34147570     0.29800
C2856       C  0.90753153  0.16730083  0.35503192    -0.21000
C2857       C  0.90262135  0.17230474  0.38166976    -0.09100
C2858       C  0.91844061  0.19061095  0.39523795     0.29800
F2859       F  0.91471079  0.19514597  0.42135697    -0.19600
H2860       H  0.94916081  0.21950235  0.39235206     0.18200
H2861       H  0.89568496  0.15311747  0.34439322     0.18200
F2862       F  0.93006247  0.17712714  0.31533692    -0.19600
C2863       C  0.07186626  0.33703646  0.34517360    -0.21000
C2864       C  0.06025098  0.31465870  0.35687354    -0.09100
C2865       C  0.06777616  0.30780167  0.38270020     0.29800
C2866       C  0.08712002  0.32237214  0.39586177    -0.21000
C2867       C  0.09948874  0.34399822  0.38366057    -0.09100
C2868       C  0.09127343  0.35152849  0.35833368     0.29800
F2869       F  0.10305966  0.37185349  0.34557033    -0.19600
H2870       H  0.06652495  0.34298417  0.32536850     0.18200
H2871       H  0.09278972  0.31641455  0.41557842     0.18200
F2872       F  0.05696296  0.28674000  0.39512739    -0.19600
C2873       C  0.79723572  0.57617152  0.21191707    -0.21000
C2874       C  0.78956464  0.55012988  0.20763889    -0.09100
C2875       C  0.80429680  0.53441824  0.19023929     0.29800
C2876       C  0.82576564  0.54500615  0.17652477    -0.21000
C2877       C  0.83290167  0.57161300  0.17968827    -0.09100
C2878       C  0.81816452  0.58704332  0.19772134     0.29800
F2879       F  0.82265080  0.61323534  0.20032704    -0.19600
H2880       H  0.78589503  0.58866357  0.22501031     0.18200
H2881       H  0.83547153  0.53254711  0.16229671     0.18200
F2882       F  0.79752432  0.50893426  0.18599245    -0.19600
C2883       C  0.79532212  0.47417346  0.32071260    -0.21000
C2884       C  0.78725017  0.46453772  0.29610925    -0.09100
C2885       C  0.80150090  0.44386545  0.28451173     0.29800
C2886       C  0.82283247  0.43247246  0.29778753    -0.21000
C2887       C  0.83034519  0.44128800  0.32309548    -0.09100
C2888       C  0.81637528  0.46265024  0.33415465     0.29800
F2889       F  0.82203068  0.47140851  0.35880112    -0.19600
H2890       H  0.78462361  0.49006546  0.33012064     0.18200
H2891       H  0.83229452  0.41601342  0.28833921     0.18200
F2892       F  0.79475192  0.43448820  0.26038308    -0.19600
C2893       C  0.67168970  0.39873399  0.15873169    -0.21000
C2894       C  0.66777810  0.40899104  0.13336118    -0.09100
C2895       C  0.67457926  0.43520649  0.12819673     0.29800
C2896       C  0.68509944  0.45098617  0.14822827    -0.21000
C2897       C  0.68909327  0.44092126  0.17385979    -0.09100
C2898       C  0.68214833  0.41447702  0.17887752     0.29800
F2899       F  0.68522164  0.40378530  0.20322023    -0.19600
H2900       H  0.66674327  0.37841268  0.16288149     0.18200
H2901       H  0.69005628  0.47119345  0.14361008     0.18200
F2902       F  0.67134951  0.44542721  0.10366329    -0.19600
C2903       C  0.70090643  0.57801744  0.34590856    -0.21000
C2904       C  0.68407383  0.57353739  0.32437205    -0.09100
C2905       C  0.65885831  0.58525946  0.32449254     0.29800
C2906       C  0.65081765  0.60105047  0.34553495    -0.21000
C2907       C  0.66742691  0.60546597  0.36723895    -0.09100
C2908       C  0.69266042  0.59354598  0.36726840     0.29800
F2909       F  0.70908460  0.59599802  0.38825034    -0.19600
H2910       H  0.72020806  0.56885574  0.34658555     0.18200
H2911       H  0.63155912  0.61016309  0.34444873     0.18200
F2912       F  0.64194414  0.58184161  0.30402400    -0.19600
C2913       C  0.66165279  0.58306436  0.17269539    -0.21000
C2914       C  0.64877859  0.56863167  0.19269813    -0.09100
C2915       C  0.62213210  0.57432048  0.19822904     0.29800
C2916       C  0.60911804  0.59438607  0.18458995    -0.21000
C2917       C  0.62223460  0.60909301  0.16513116    -0.09100
C2918       C  0.64852503  0.60307917  0.15900527     0.29800
F2919       F  0.66191090  0.61738671  0.14076115    -0.19600
H2920       H  0.68216871  0.57931275  0.16799822     0.18200
H2921       H  0.58868983  0.59857563  0.18934521     0.18200
F2922       F  0.60861903  0.56075964  0.21693609    -0.19600
C2923       C  0.60526890  0.42653047  0.31593555    -0.21000
C2924       C  0.61842407  0.41159417  0.33527775    -0.09100
C2925       C  0.64523365  0.41629359  0.34010296     0.29800
C2926       C  0.65904146  0.43431196  0.32447240    -0.21000
C2927       C  0.64623501  0.44821883  0.30412143    -0.09100
C2928       C  0.61896622  0.44482262  0.30054959     0.29800
F2929       F  0.60592963  0.45776691  0.28107264    -0.19600
H2930       H  0.58450547  0.42323386  0.31204406     0.18200
H2931       H  0.68000550  0.43686818  0.32780067     0.18200
F2932       F  0.65851251  0.40210018  0.35850721    -0.19600
C2933       C  0.29294324  0.29807541  0.56701490    -0.21000
C2934       C  0.29834769  0.29063966  0.54102825    -0.09100
C2935       C  0.31640053  0.30542245  0.52609969     0.29800
C2936       C  0.32909849  0.32711243  0.53724533    -0.21000
C2937       C  0.32423504  0.33441103  0.56362035    -0.09100
C2938       C  0.30610776  0.31924017  0.57843067     0.29800
F2939       F  0.30215066  0.32385449  0.60449769    -0.19600
H2940       H  0.27939440  0.28666977  0.57896966     0.18200
H2941       H  0.34368231  0.33705536  0.52536951     0.18200
F2942       F  0.32198126  0.29878505  0.50077170    -0.19600
C2943       C  0.18719472  0.30722139  0.47120260    -0.21000
C2944       C  0.20906910  0.29667522  0.45792855    -0.09100
C2945       C  0.21784999  0.30891397  0.43467807     0.29800
C2946       C  0.20419433  0.33050225  0.42438702    -0.21000
C2947       C  0.18156860  0.34063809  0.43711635    -0.09100
C2948       C  0.17330712  0.32849876  0.46079127     0.29800
F2949       F  0.15056271  0.33573263  0.47294462    -0.19600
H2950       H  0.17979871  0.29804113  0.48902197     0.18200
H2951       H  0.21062885  0.33793579  0.40550213     0.18200
F2952       F  0.23913370  0.29957826  0.42135330    -0.19600
C2953       C  0.36282641  0.16340546  0.41889971    -0.21000
C2954       C  0.36302441  0.17112900  0.39239302    -0.09100
C2955       C  0.34399968  0.18922889  0.38339282     0.29800
C2956       C  0.32539908  0.19973820  0.40083120    -0.21000
C2957       C  0.32571070  0.19275635  0.42761459    -0.09100
C2958       C  0.34451558  0.17423665  0.43647443     0.29800
F2959       F  0.34498019  0.16622961  0.46202243    -0.19600
H2960       H  0.37737758  0.14954948  0.42616865     0.18200
H2961       H  0.31095488  0.21363259  0.39344314     0.18200
F2962       F  0.34332969  0.19664451  0.35767269    -0.19600
C2963       C  0.15833067  0.20690085  0.56806193    -0.21000
C2964       C  0.17896329  0.18944389  0.56217665    -0.09100
C2965       C  0.17859635  0.16416175  0.57350035     0.29800
C2966       C  0.15831231  0.15677404  0.59060845    -0.21000
C2967       C  0.13776093  0.17419811  0.59697967    -0.09100
C2968       C  0.13772442  0.19933587  0.58490440     0.29800
F2969       F  0.11733809  0.21632637  0.58827973    -0.19600
H2970       H  0.15776768  0.22622585  0.55904722     0.18200
H2971       H  0.15909934  0.13732975  0.59899482     0.18200
F2972       F  0.19818892  0.14660668  0.56852532    -0.19600
C2973       C  0.32703216  0.16606616  0.57115417    -0.21000
C2974       C  0.30715193  0.15312792  0.55664112    -0.09100
C2975       C  0.30086039  0.12696452  0.56317000     0.29800
C2976       C  0.31362502  0.11452258  0.58418288    -0.21000
C2977       C  0.33288035  0.12779986  0.59904054    -0.09100
C2978       C  0.33978885  0.15356194  0.59212103     0.29800
F2979       F  0.35783408  0.16714552  0.60643799    -0.19600
H2980       H  0.33232084  0.18624156  0.56676951     0.18200
H2981       H  0.30832451  0.09443781  0.58899377     0.18200
F2982       F  0.28218358  0.11345953  0.54960841    -0.19600
C2983       C  0.18238795  0.16818210  0.41424850    -0.21000
C2984       C  0.19909903  0.15480884  0.43201673    -0.09100
C2985       C  0.19943038  0.12712259  0.43177760     0.29800
C2986       C  0.18414346  0.11333885  0.41348509    -0.21000
C2987       C  0.16799477  0.12681966  0.39549297    -0.09100
C2988       C  0.16685052  0.15432038  0.39622728     0.29800
F2989       F  0.15185959  0.16778003  0.37858563    -0.19600
H2990       H  0.18159858  0.18947624  0.41402408     0.18200
H2991       H  0.18530503  0.09205999  0.41294462     0.18200
F2992       F  0.21530005  0.11336583  0.44837626    -0.19600
C2993       C  0.46950448  0.18754069  0.29050924    -0.21000
C2994       C  0.45859334  0.21145278  0.28190773    -0.09100
C2995       C  0.43697687  0.22201146  0.29564599     0.29800
C2996       C  0.42595555  0.20836905  0.31683300    -0.21000
C2997       C  0.43633018  0.18394308  0.32518199    -0.09100
C2998       C  0.45848641  0.17383900  0.31167122     0.29800
F2999       F  0.46851920  0.14981227  0.31772891    -0.19600
H3000       H  0.48621902  0.17894567  0.28033813     0.18200
H3001       H  0.40820009  0.21653307  0.32520602     0.18200
F3002       F  0.42532731  0.24473758  0.28768196    -0.19600
C3003       C  0.57088814  0.30307328  0.28881932    -0.21000
C3004       C  0.54348411  0.30155523  0.28554545    -0.09100
C3005       C  0.52700334  0.31298319  0.30482772     0.29800
C3006       C  0.53785246  0.32696317  0.32597643    -0.21000
C3007       C  0.56535911  0.33001889  0.32829499    -0.09100
C3008       C  0.58172279  0.31711637  0.30975403     0.29800
F3009       F  0.60840860  0.31940219  0.31095087    -0.19600
H3010       H  0.58410292  0.29433675  0.27448702     0.18200
H3011       H  0.52438433  0.33612253  0.33963782     0.18200
F3012       F  0.50032651  0.31117635  0.30305190    -0.19600
C3013       C  0.56174627  0.15758544  0.17894678    -0.21000
C3014       C  0.57205931  0.18259079  0.18512464    -0.09100
C3015       C  0.59908520  0.18734887  0.18029444     0.29800
C3016       C  0.61511023  0.16755969  0.16953025    -0.21000
C3017       C  0.60449751  0.14290178  0.16315786    -0.09100
C3018       C  0.57777432  0.13795252  0.16815749     0.29800
F3019       F  0.56736049  0.11383513  0.16336519    -0.19600
H3020       H  0.54113735  0.15311763  0.18242711     0.18200
H3021       H  0.63588749  0.17141237  0.16625635     0.18200
F3022       F  0.61008195  0.21103975  0.18583924    -0.19600
C3023       C  0.42882332  0.34975014  0.19754197    -0.21000
C3024       C  0.43364723  0.32855051  0.18049782    -0.09100
C3025       C  0.42076381  0.32803945  0.15587365     0.29800
C3026       C  0.40357663  0.34832383  0.14857273    -0.21000
C3027       C  0.39880821  0.36963531  0.16549079    -0.09100
C3028       C  0.41186602  0.37023926  0.19009251     0.29800
F3029       F  0.40928238  0.39111263  0.20654915    -0.19600
H3030       H  0.43886231  0.35090280  0.21636068     0.18200
H3031       H  0.39378163  0.34711299  0.12967855     0.18200
F3032       F  0.42442914  0.30770797  0.13891969    -0.19600
C3033       C  0.60102289  0.34656584  0.14692888    -0.21000
C3034       C  0.60079239  0.34762567  0.11942572    -0.09100
C3035       C  0.58131237  0.33380203  0.10539659     0.29800
C3036       C  0.56311530  0.31794255  0.11878929    -0.21000
C3037       C  0.56437533  0.31534748  0.14633909    -0.09100
C3038       C  0.58307980  0.33055342  0.16037021     0.29800
F3039       F  0.58461428  0.32948111  0.18707982    -0.19600
H3040       H  0.61604696  0.35701940  0.15792629     0.18200
H3041       H  0.54883761  0.30680432  0.10750798     0.18200
F3042       F  0.58063205  0.33485516  0.07865308    -0.19600
C3043       C  0.43450665  0.17694256  0.15377921    -0.21000
C3044       C  0.44508226  0.19992642  0.14224100    -0.09100
C3045       C  0.43506561  0.20828366  0.11779210     0.29800
C3046       C  0.41435980  0.19456334  0.10589482    -0.21000
C3047       C  0.40278809  0.17250241  0.11820182    -0.09100
C3048       C  0.41356722  0.16341617  0.14201137     0.29800
F3049       F  0.40298123  0.14247801  0.15481369    -0.19600
H3050       H  0.44181311  0.16982817  0.17254698     0.18200
H3051       H  0.40703594  0.20160906  0.08711330     0.18200
F3052       F  0.44448846  0.23022012  0.10575994    -0.19600
C3053       C  0.29011666  0.57613106  0.29348684    -0.21000
C3054       C  0.28647473  0.54877749  0.29341169    -0.09100
C3055       C  0.30563467  0.53278927  0.30567689     0.29800
C3056       C  0.32695251  0.54411110  0.31906145    -0.21000
C3057       C  0.32965309  0.57164690  0.32065417    -0.09100
C3058       C  0.31130647  0.58743958  0.30684396     0.29800
F3059       F  0.31289254  0.61409963  0.30766686    -0.19600
H3060       H  0.27595519  0.58901650  0.28401550     0.18200
H3061       H  0.34042355  0.53097731  0.32893401     0.18200
F3062       F  0.30358524  0.50616633  0.30530852    -0.19600
C3063       C  0.29169945  0.43740537  0.21228462    -0.21000
C3064       C  0.28305081  0.46252848  0.20487716    -0.09100
C3065       C  0.29642017  0.47605473  0.18480123     0.29800
C3066       C  0.31787533  0.46446055  0.17223054    -0.21000
C3067       C  0.32695108  0.43923928  0.17954705    -0.09100
C3068       C  0.31287100  0.42550364  0.19931890     0.29800
F3069       F  0.31809805  0.39994545  0.20497700    -0.19600
H3070       H  0.28114124  0.42634784  0.22721024     0.18200
H3071       H  0.32639921  0.47497418  0.15577075     0.18200
F3072       F  0.28851666  0.50035774  0.17691220    -0.19600
C3073       C  0.18723255  0.61865332  0.15114499    -0.21000
C3074       C  0.16652687  0.61041511  0.13453817    -0.09100
C3075       C  0.15580452  0.58518364  0.13820364     0.29800
C3076       C  0.16605770  0.56845162  0.15762735    -0.21000
C3077       C  0.18681664  0.57666642  0.17408191    -0.09100
C3078       C  0.19719248  0.60205372  0.17083557     0.29800
F3079       F  0.21750381  0.61048527  0.18608379    -0.19600
H3080       H  0.19577246  0.63804803  0.14885393     0.18200
H3081       H  0.15760629  0.54901360  0.15995484     0.18200
F3082       F  0.13616565  0.57622199  0.12240919    -0.19600
C3083       C  0.14762323  0.42764397  0.35473516    -0.21000
C3084       C  0.16385645  0.40656052  0.36244858    -0.09100
C3085       C  0.18735280  0.40222057  0.34784079     0.29800
C3086       C  0.19504553  0.41968550  0.32784760    -0.21000
C3087       C  0.17917580  0.44125834  0.32108526    -0.09100
C3088       C  0.15509676  0.44478315  0.33450197     0.29800
F3089       F  0.13892509  0.46527660  0.32860814    -0.19600
H3090       H  0.12908148  0.43138304  0.36437048     0.18200
H3091       H  0.21321536  0.41595926  0.31720866     0.18200
F3092       F  0.20253598  0.38059241  0.35183573    -0.19600
C3093       C  0.15825412  0.58396603  0.32105758    -0.21000
C3094       C  0.14426321  0.56865732  0.30268833    -0.09100
C3095       C  0.11664123  0.57098157  0.30144595     0.29800
C3096       C  0.10367622  0.58951465  0.31723372    -0.21000
C3097       C  0.11799427  0.60571894  0.33457877    -0.09100
C3098       C  0.14530737  0.60235700  0.33677827     0.29800
F3099       F  0.15986863  0.61841609  0.35227051    -0.19600
H3100       H  0.17952895  0.58241330  0.32259753     0.18200
H3101       H  0.08253323  0.59201055  0.31517603     0.18200
F3102       F  0.10240786  0.55666854  0.28391269    -0.19600
C3103       C  0.11963925  0.44308041  0.19680699    -0.21000
C3104       C  0.14555595  0.44966888  0.18973753    -0.09100
C3105       C  0.15745143  0.43649658  0.16820162     0.29800
C3106       C  0.14400552  0.41637755  0.15508817    -0.21000
C3107       C  0.11869113  0.40899932  0.16319923    -0.09100
C3108       C  0.10626050  0.42309198  0.18365830     0.29800
F3109       F  0.08110798  0.41753514  0.19104984    -0.19600
H3110       H  0.10978441  0.45307094  0.21289774     0.18200
H3111       H  0.15378300  0.40588152  0.13926790     0.18200
F3112       F  0.18233105  0.44239417  0.16019379    -0.19600
C3113       C  0.81932845  0.80240397  0.02894295    -0.21000
C3114       C  0.79554960  0.79362180  0.04007334    -0.09100
C3115       C  0.78395560  0.80848953  0.06038929     0.29800
C3116       C  0.79673934  0.83067801  0.07033651    -0.21000
C3117       C  0.82134002  0.83885182  0.06019383    -0.09100
C3118       C  0.83213423  0.82459231  0.03883501     0.29800
F3119       F  0.85614940  0.83084567  0.02873685    -0.19600
H3120       H  0.82857208  0.79158432  0.01302741     0.18200
H3121       H  0.78783856  0.84001741  0.08721015     0.18200
F3122       F  0.76098857  0.80081404  0.07185472    -0.19600
C3123       C  0.70521866  0.79719008  0.93032429    -0.21000
C3124       C  0.70695632  0.79432275  0.95775498    -0.09100
C3125       C  0.69620564  0.81409316  0.97398116     0.29800
C3126       C  0.68251964  0.83531947  0.96291896    -0.21000
C3127       C  0.67916512  0.83729389  0.93541714    -0.09100
C3128       C  0.69152780  0.81827015  0.91925951     0.29800
F3129       F  0.68904350  0.81918515  0.89260358    -0.19600
H3130       H  0.71353700  0.78248055  0.91729724     0.18200
H3131       H  0.67388352  0.84934338  0.97629962     0.18200
F3132       F  0.69849946  0.81278863  0.00062372    -0.19600
C3133       C  0.66318293  0.66714179  0.05983724    -0.21000
C3134       C  0.67868064  0.68925336  0.06584631    -0.09100
C3135       C  0.67331800  0.70336813  0.08903490     0.29800
C3136       C  0.65308822  0.69512265  0.10599463    -0.21000
C3137       C  0.63744768  0.67299299  0.09992632    -0.09100
C3138       C  0.64259988  0.65926658  0.07639762     0.29800
F3139       F  0.62715187  0.63891855  0.06863388    -0.19600
H3140       H  0.66663583  0.65619255  0.04184127     0.18200
H3141       H  0.64989865  0.70595825  0.12408368     0.18200
F3142       F  0.68807895  0.72461497  0.09571478    -0.19600
C3143       C  0.82460729  0.70077539  0.90328328    -0.21000
C3144       C  0.82497924  0.69351719  0.92999046    -0.09100
C3145       C  0.84419817  0.67542917  0.93878758     0.29800
C3146       C  0.86293040  0.66532782  0.92124490    -0.21000
C3147       C  0.86310593  0.67337349  0.89484054    -0.09100
C3148       C  0.84362515  0.69100427  0.88586885     0.29800
F3149       F  0.84290843  0.69866113  0.86021804    -0.19600
H3150       H  0.80981903  0.71434515  0.89596521     0.18200
H3151       H  0.87780319  0.65179074  0.92846615     0.18200
F3152       F  0.84464295  0.66713245  0.96424110    -0.19600
C3153       C  0.69406896  0.66293799  0.90997768    -0.21000
C3154       C  0.69647539  0.65420283  0.93622302    -0.09100
C3155       C  0.68120038  0.63256952  0.94457054     0.29800
C3156       C  0.66440082  0.61974834  0.92667548    -0.21000
C3157       C  0.66278664  0.62828993  0.90038045    -0.09100
C3158       C  0.67764110  0.65002663  0.89222481     0.29800
F3159       F  0.67705516  0.65809920  0.86669592    -0.19600
H3160       H  0.70552706  0.67947346  0.90286317     0.18200
H3161       H  0.65347019  0.60256456  0.93302939     0.18200
F3162       F  0.68250046  0.62382576  0.96983485    -0.19600
C3163       C  0.80391712  0.62684403  0.06408337    -0.21000
C3164       C  0.80977386  0.65317299  0.05810126    -0.09100
C3165       C  0.83056794  0.66562458  0.07198316     0.29800
C3166       C  0.84419927  0.65229593  0.09193996    -0.21000
C3167       C  0.83736502  0.62651008  0.09865857    -0.09100
C3168       C  0.81757287  0.61359579  0.08406440     0.29800
F3169       F  0.81144208  0.58808164  0.08909368    -0.19600
H3170       H  0.78846589  0.61655209  0.05356170     0.18200
H3171       H  0.85944428  0.66250490  0.10285766     0.18200
F3172       F  0.83733496  0.69098164  0.06698776    -0.19600
C3173       C  0.28865317  0.79743766  0.43019457    -0.21000
C3174       C  0.29346925  0.79039074  0.45641305    -0.09100
C3175       C  0.31090383  0.80559957  0.47153901     0.29800
C3176       C  0.32369936  0.82724167  0.46034978    -0.21000
C3177       C  0.31953718  0.83421535  0.43373462    -0.09100
C3178       C  0.30203428  0.81852515  0.41869325     0.29800
F3179       F  0.29924736  0.82214123  0.39232655    -0.19600
H3180       H  0.27570014  0.78556622  0.41807858     0.18200
H3181       H  0.33805863  0.83734737  0.47235006     0.18200
F3182       F  0.31599352  0.79924313  0.49705227    -0.19600
C3183       C  0.20385118  0.82659820  0.57374660    -0.21000
C3184       C  0.17929261  0.83510650  0.56364907    -0.09100
C3185       C  0.16867701  0.82156772  0.54181247     0.29800
C3186       C  0.18183497  0.80007587  0.53096336    -0.21000
C3187       C  0.20562899  0.79104878  0.54181759    -0.09100
C3188       C  0.21683220  0.80481755  0.56302398     0.29800
F3189       F  0.24014428  0.79704746  0.57371743    -0.19600
H3190       H  0.21270942  0.83549646  0.59085788     0.18200
H3191       H  0.17269786  0.78973667  0.51468486     0.18200
F3192       F  0.14454303  0.82791343  0.53205420    -0.19600
C3193       C  0.15678723  0.65435436  0.40392859    -0.21000
C3194       C  0.13649097  0.67204908  0.39739594    -0.09100
C3195       C  0.13730138  0.69750857  0.40865127     0.29800
C3196       C  0.15817140  0.70494479  0.42520029    -0.21000
C3197       C  0.17846720  0.68718254  0.43146453    -0.09100
C3198       C  0.17755950  0.66175264  0.42047424     0.29800
F3199       F  0.19684630  0.64388937  0.42554163    -0.19600
H3200       H  0.15684631  0.63457708  0.39632304     0.18200
H3201       H  0.15796651  0.72443240  0.43381607     0.18200
F3202       F  0.11732587  0.71492089  0.40499702    -0.19600
C3203       C  0.37169764  0.68194535  0.57798599    -0.21000
C3204       C  0.36527329  0.67200226  0.60289787    -0.09100
C3205       C  0.33894062  0.67264202  0.61144310     0.29800
C3206       C  0.31920930  0.68301197  0.59503534    -0.21000
C3207       C  0.32546519  0.69290652  0.56982481    -0.09100
C3208       C  0.35210047  0.69222477  0.56151095     0.29800
F3209       F  0.35940974  0.70167833  0.53755325    -0.19600
H3210       H  0.39205246  0.68198111  0.57140086     0.18200
H3211       H  0.29899801  0.68309016  0.60200187     0.18200
F3212       F  0.33243695  0.66366926  0.63581946    -0.19600
C3213       C  0.17520132  0.66652412  0.57696071    -0.21000
C3214       C  0.19187789  0.65223936  0.55989745    -0.09100
C3215       C  0.19096972  0.62459026  0.56044342     0.29800
C3216       C  0.17556993  0.61173872  0.57938778    -0.21000
C3217       C  0.16042910  0.62620405  0.59750586    -0.09100
C3218       C  0.15948658  0.65362486  0.59553471     0.29800
F3219       F  0.14510346  0.66798495  0.61294905    -0.19600
H3220       H  0.17507952  0.68783260  0.57664288     0.18200
H3221       H  0.17637591  0.59047730  0.58076093     0.18200
F3222       F  0.20622312  0.61001152  0.54399411    -0.19600
C3223       C  0.33095267  0.66291267  0.43117809    -0.21000
C3224       C  0.30948514  0.65051011  0.44383584    -0.09100
C3225       C  0.30271072  0.62477277  0.43630005     0.29800
C3226       C  0.31615451  0.61249485  0.41568196    -0.21000
C3227       C  0.33650969  0.62552965  0.40206958    -0.09100
C3228       C  0.34435431  0.65058793  0.41049037     0.29800
F3229       F  0.36381204  0.66385727  0.39776178    -0.19600
H3230       H  0.33682915  0.68266232  0.43658595     0.18200
H3231       H  0.31026653  0.59282258  0.40999738     0.18200
F3232       F  0.28262284  0.61167255  0.44819447    -0.19600
loop_ 
_geom_bond_atom_site_label_1 
_geom_bond_atom_site_label_2 
_geom_bond_distance 
_geom_bond_site_symmetry_2 
_ccdc_geom_bond_type 
O1           C17   1.276       .  A
O1           Zn7   2.011       .  S
C2           O18   1.273       .  A
C2           O15   1.277       .  A
C2         C3207   1.491       .  S
O3           C16   1.282       .  A
O3          Cd10   2.091       .  S
O4           C22   1.275       .  A
O4          Cd13   2.046       .  S
O5           C19   1.276       .  A
O5           Cd9   2.058       .  S
O6           C17   1.277       .  A
O6           Cd9   2.072       .  S
Zn7          O18   2.010       .  S
Zn7          O20   1.987       .  S
Zn7          O12   1.895       .  S
O8           C19   1.278       .  A
O8          Cd13   2.073       .  S
Cd9          O11   2.093       .  S
Cd9          O12   1.977       .  S
Cd10         O14   2.068       .  S
Cd10         O23   2.098       .  S
Cd10         O12   1.974       .  S
O11          C21   1.279       .  A
O12         Cd13   1.963       .  S
Cd13         O15   2.092       .  S
O14          C21   1.275       .  A
C16          O20   1.274       .  A
C16        C3224   1.483       .  S
C17        C3174   1.472       .  S
C19        C3187   1.476       .  S
C21        C3197   1.489       .  S
C22          O23   1.281       .  A
C22        C3214   1.481       .  S
O24          C40   1.273       .  A
O24         Zn30   2.007   1_556  S
C25          O41   1.277       .  A
C25          O38   1.276       .  A
C25        C3114   1.481       .  S
O26          C39   1.285       .  A
O26         Cd33   2.114       .  S
O27          C45   1.279       .  A
O27         Cd36   2.093       .  S
O28          C42   1.277       .  A
O28         Cd32   2.065       .  S
O29          C40   1.275       .  A
O29         Cd32   2.074       .  S
Zn30         O41   2.013       .  S
Zn30         O43   1.984       .  S
Zn30         O35   1.891   1_554  S
O31          C42   1.277       .  A
O31         Cd36   2.070   1_556  S
Cd32         O34   2.039       .  S
Cd32         O35   1.960       .  S
Cd33         O37   2.110   1_554  S
Cd33         O46   2.060       .  S
Cd33         O35   1.978   1_554  S
O34          C44   1.274       .  A
O35         Cd36   1.977   1_556  S
Cd36         O38   2.063       .  S
O37          C44   1.283       .  A
C39          O43   1.273       .  A
C39        C3164   1.490       .  S
C40        C3144   1.479       .  S
C42        C3124   1.481       .  S
C44        C3154   1.484       .  S
C45          O46   1.275       .  A
C45        C3134   1.481       .  S
O47          C63   1.273       .  A
O47         Zn53   2.009       .  S
C48          O64   1.275       .  A
C48          O61   1.276       .  A
C48        C3064   1.469       .  S
O49          C62   1.281       .  A
O49         Cd56   2.090       .  S
O50          C68   1.280       .  A
O50         Cd59   2.096       .  S
O51          C65   1.278       .  A
O51         Cd55   2.070       .  S
O52          C63   1.276       .  A
O52         Cd55   2.088       .  S
Zn53         O64   1.996       .  S
Zn53         O66   1.977       .  S
Zn53         O58   1.887       .  S
O54          C65   1.278       .  A
O54         Cd59   2.077       .  S
Cd55         O57   2.044       .  S
Cd55         O58   1.961       .  S
Cd56         O60   2.090       .  S
Cd56         O69   2.061       .  S
Cd56         O58   1.973       .  S
O57          C67   1.275       .  A
O58         Cd59   1.978       .  S
Cd59         O61   2.064       .  S
O60          C67   1.280       .  A
C62          O66   1.270       .  A
C62        C3104   1.482       .  S
C63        C3077   1.479       .  S
C65        C3054   1.485       .  S
C67        C3094   1.477       .  S
C68          O69   1.274       .  A
C68        C3087   1.485       .  S
O70          C86   1.273       .  A
O70         Zn76   2.005       .  S
C71          O87   1.275       .  A
C71          O84   1.277       .  A
C71        C2994   1.478       .  S
O72          C85   1.283       .  A
O72         Cd79   2.106       .  S
O73          C91   1.279       .  A
O73         Cd82   2.094       .  S
O74          C88   1.279       .  A
O74         Cd78   2.077       .  S
O75          C86   1.277       .  A
O75         Cd78   2.092       .  S
Zn76         O87   2.000       .  S
Zn76         O89   1.981       .  S
Zn76         O81   1.894       .  S
O77          C88   1.276       .  A
O77         Cd82   2.063       .  S
Cd78         O80   2.044       .  S
Cd78         O81   1.966       .  S
Cd79         O83   2.109       .  S
Cd79         O92   2.065       .  S
Cd79         O81   1.982       .  S
O80          C90   1.274       .  A
O81         Cd82   1.980       .  S
Cd82         O84   2.070       .  S
O83          C90   1.284       .  A
C85          O89   1.273       .  A
C85        C3044   1.487       .  S
C86        C3014   1.491       .  S
C88        C3004   1.482       .  S
C90        C3037   1.486       .  S
C91          O92   1.274       .  A
C91        C3024   1.485       .  S
O93         C109   1.273       .  A
O93         Zn99   2.004       .  S
C94         O110   1.275       .  A
C94         O107   1.277       .  A
C94        C2934   1.471       .  S
O95         C108   1.281       .  A
O95        Cd102   2.094       .  S
O96         C114   1.278       .  A
O96        Cd105   2.088       .  S
O97         C111   1.278       .  A
O97        Cd101   2.074       .  S
O98         C109   1.276       .  A
O98        Cd101   2.081       .  S
Zn99        O110   2.006       .  S
Zn99        O112   1.982       .  S
Zn99        O104   1.885       .  S
O100        C111   1.276       .  A
O100       Cd105   2.057       .  S
Cd101       O103   2.054       .  S
Cd101       O104   1.961       .  S
Cd102       O106   2.093       .  S
Cd102       O115   2.060       .  S
Cd102       O104   1.967       .  S
O103        C113   1.276       .  A
O104       Cd105   1.970       .  S
Cd105       O107   2.069       .  S
O106        C113   1.282       .  A
C108        O112   1.273       .  A
C108       C2974   1.484       .  S
C109       C2957   1.481       .  S
C111       C2944   1.478       .  S
C113       C2984   1.483       .  S
C114        O115   1.274       .  A
C114       C2964   1.482       .  S
O116        C132   1.276       .  A
O116       Zn122   2.011       .  S
C117        O133   1.275       .  A
C117        O130   1.277       .  A
C117       C2897   1.494       .  S
O118        C131   1.280       .  A
O118       Cd125   2.088       .  S
O119        C137   1.275       .  A
O119       Cd128   2.054       .  S
O120        C134   1.276       .  A
O120       Cd124   2.062       .  S
O121        C132   1.278       .  A
O121       Cd124   2.081       .  S
Zn122       O133   2.020       .  S
Zn122       O135   2.003       .  S
Zn122       O127   1.898       .  S
O123        C134   1.278       .  A
O123       Cd128   2.077       .  S
Cd124       O126   2.099       .  S
Cd124       O127   1.982       .  S
Cd125       O129   2.060       .  S
Cd125       O138   2.092       .  S
Cd125       O127   1.972       .  S
O126        C136   1.280       .  A
O127       Cd128   1.964       .  S
Cd128       O130   2.091       .  S
O129        C136   1.274       .  A
C131        O135   1.275       .  A
C131       C2914   1.486       .  S
C132       C2874   1.473       .  S
C134       C2884   1.477       .  S
C136       C2904   1.487       .  S
C137        O138   1.280       .  A
C137       C2927   1.478       .  S
O139        C155   1.277       .  A
O139       Zn145   2.018       .  S
C140        O156   1.273       .  A
C140        O153   1.275       .  A
C140       C2847   1.480       .  S
O141        C154   1.282       .  A
O141       Cd148   2.103       .  S
O142        C160   1.273       .  A
O142       Cd151   2.038       .  S
O143        C157   1.277       .  A
O143       Cd147   2.076   1_655  S
O144        C155   1.278       .  A
O144       Cd147   2.070       .  S
Zn145       O156   2.009   1_455  S
Zn145       O158   1.996       .  S
Zn145       O150   1.891       .  S
O146        C157   1.277       .  A
O146       Cd151   2.064       .  S
Cd147       O149   2.101       .  S
Cd147       O150   1.978       .  S
Cd148       O152   2.065       .  S
Cd148       O161   2.096   1_455  S
Cd148       O150   1.974       .  S
O149        C159   1.280       .  A
O150       Cd151   1.961   1_455  S
Cd151       O153   2.080       .  S
O152        C159   1.275       .  A
C154        O158   1.275       .  A
C154       C2864   1.489       .  S
C155       C2814   1.472       .  S
C157       C2824   1.485       .  S
C159       C2834   1.485       .  S
C160        O161   1.281       .  A
C160       C2854   1.476       .  S
O162        C178   1.274       .  A
O162       Zn168   2.020       .  S
C163        O179   1.278       .  A
C163        O176   1.278       .  A
C163       C2754   1.489       .  S
O164        C177   1.281       .  A
O164       Cd171   2.088       .  S
O165        C183   1.282       .  A
O165       Cd174   2.113       .  S
O166        C180   1.279       .  A
O166       Cd170   2.065       .  S
O167        C178   1.278       .  A
O167       Cd170   2.099       .  S
Zn168       O179   2.027   1_545  S
Zn168       O181   1.988   1_545  S
Zn168       O173   1.899       .  S
O169        C180   1.277       .  A
O169       Cd174   2.065   1_545  S
Cd170       O172   2.051       .  S
Cd170       O173   1.963       .  S
Cd171       O175   2.096   1_565  S
Cd171       O184   2.065       .  S
Cd171       O173   1.975   1_565  S
O172        C182   1.274       .  A
O173       Cd174   1.984   1_545  S
Cd174       O176   2.078       .  S
O175        C182   1.281       .  A
C177        O181   1.275       .  A
C177       C2794   1.482       .  S
C178       C2774   1.496       .  S
C180       C2764   1.478       .  S
C182       C2804   1.479       .  S
C183        O184   1.274       .  A
C183       C2787   1.489       .  S
O185        C201   1.276       .  A
O185       Zn191   2.007       .  S
C186        O202   1.272       .  A
C186        O199   1.276       .  A
C186       C2714   1.480       .  S
O187        C200   1.281       .  A
O187       Cd194   2.098       .  S
O188        C206   1.275       .  A
O188       Cd197   2.048       .  S
O189        C203   1.278       .  A
O189       Cd193   2.077       .  S
O190        C201   1.278       .  A
O190       Cd193   2.074       .  S
Zn191       O202   2.002       .  S
Zn191       O204   1.980       .  S
Zn191       O196   1.889       .  S
O192        C203   1.278       .  A
O192       Cd197   2.067       .  S
Cd193       O195   2.103       .  S
Cd193       O196   1.980       .  S
Cd194       O198   2.058       .  S
Cd194       O207   2.093       .  S
Cd194       O196   1.975       .  S
O195        C205   1.281       .  A
O196       Cd197   1.959       .  S
Cd197       O199   2.079       .  S
O198        C205   1.275       .  A
C200        O204   1.273       .  A
C200       C2747   1.484       .  S
C201       C2694   1.484       .  S
C203       C2704   1.485       .  S
C205       C2724   1.482       .  S
C206        O207   1.280       .  A
C206       C2734   1.484       .  S
C208        C209   1.550       .  S
C208        C214   1.529       .  S
C208        C212   1.536       .  S
C208       C2684   1.528       .  S
C209        H216   1.083       .  S
C209        C210   1.371       .  D
C210        C211   1.541       .  S
C210       C2674   1.486       .  S
C211        C215   1.536       .  S
C211        C213   1.550       .  S
C211        H217   1.108       .  S
C212        H218   1.085       .  S
C212        C213   1.369       .  D
C213       C2727   1.495       .  S
C214        H219   1.087       .  S
C214        C215   1.356       .  D
C215       C2797   1.478       .  S
C220        C221   1.538       .  S
C220        C226   1.529       .  S
C220        C224   1.549       .  S
C220       C2664   1.530       .  S
C221        H228   1.086       .  S
C221        C222   1.364       .  D
C222        C223   1.542       .  S
C222       C2777   1.482       .  S
C223        C227   1.536       .  S
C223        C225   1.545       .  S
C223        H229   1.109       .  S
C224        H230   1.082       .  S
C224        C225   1.375       .  D
C225       C2654   1.496       .  S
C226        H231   1.087       .  S
C226        C227   1.358       .  D
C227       C2857   1.475       .  S
C232        C233   1.547       .  S
C232        C238   1.530       .  S
C232        C236   1.539       .  S
C232       C2644   1.530       .  S
C233        H240   1.078       .  S
C233        C234   1.373       .  D
C234        C235   1.550       .  S
C234       C2624   1.508       .  S
C235        C239   1.537       .  S
C235        C237   1.546       .  S
C235        H241   1.105       .  S
C236        H242   1.086       .  S
C236        C237   1.368       .  D
C237       C2634   1.491       .  S
C238        H243   1.087       .  S
C238        C239   1.354       .  D
C239       C2737   1.472       .  S
C244        C245   1.544       .  S
C244        C250   1.532       .  S
C244        C248   1.538       .  S
C244       C2617   1.525       .  S
C245        H252   1.082       .  S
C245        C246   1.369       .  D
C246        C247   1.543       .  S
C246       C2604   1.484       .  S
C247        C251   1.534       .  S
C247        C249   1.548       .  S
C247        H253   1.110       .  S
C248        H254   1.085       .  S
C248        C249   1.369       .  D
C249       C2837   1.495       .  S
C250        H255   1.087       .  S
C250        C251   1.355       .  D
C251       C2987   1.474       .  S
C256        C257   1.540       .  S
C256        C262   1.528       .  S
C256        C260   1.544       .  S
C256       C2594   1.527       .  S
C257        H264   1.079       .  S
C257        C258   1.370       .  D
C258        C259   1.552       .  S
C258       C2967   1.500       .  S
C259        C263   1.542       .  S
C259        C261   1.546       .  S
C259        H265   1.107       .  S
C260        H266   1.084       .  S
C260        C261   1.371       .  D
C261       C2584   1.498       .  S
C262        H267   1.087       .  S
C262        C263   1.355       .  D
C263       C2577   1.483       .  S
C268        C269   1.544       .  S
C268        C274   1.532       .  S
C268        C272   1.540       .  S
C268       C3184   1.525       .  S
C269        H276   1.086       .  S
C269        C270   1.370       .  D
C270        C271   1.540       .  S
C270       C2567   1.483       .  S
C271        C275   1.532       .  S
C271        C273   1.542       .  S
C271        H277   1.111       .  S
C272        H278   1.082       .  S
C272        C273   1.365       .  D
C273       C2544   1.484       .  S
C274        H279   1.087       .  S
C274        C275   1.357       .  D
C275       C2554   1.473       .  S
O280        C296   1.278       .  A
O280       Zn286   2.044   1_455  S
C281        O297   1.278       .  A
C281        O294   1.276       .  A
C281       C2677   1.494       .  S
O282        C295   1.278       .  A
O282       Cd289   2.093       .  S
O283        C301   1.274       .  A
O283       Cd292   2.056       .  S
O284        C298   1.275       .  A
O284       Cd288   2.082   1_565  S
O285        C296   1.274       .  A
O285       Cd288   2.064       .  S
Zn286       O297   2.041   1_545  S
Zn286       O299   2.030       .  S
Zn286       O291   1.955   1_655  S
O287        C298   1.275       .  A
O287       Cd292   2.074   1_455  S
Cd288       O290   2.061       .  S
Cd288       O291   2.003       .  S
Cd289       O293   2.110   1_655  S
Cd289       O302   2.106       .  S
Cd289       O291   2.024   1_655  S
O290        C300   1.274       .  A
O291       Cd292   2.001   1_445  S
Cd292       O294   2.087       .  S
O293        C300   1.280       .  A
C295        O299   1.276       .  A
C295       C2657   1.491       .  S
C296       C2607   1.482       .  S
C298       C2564   1.485       .  S
C300       C2587   1.486       .  S
C301        O302   1.280   1_565  A
C301       C2637   1.486       .  S
O303        C319   1.272       .  A
O303       Zn309   2.005       .  S
C304        O320   1.276       .  A
C304        O317   1.279       .  A
C304       C2494   1.477       .  S
O305        C318   1.280       .  A
O305       Cd312   2.090       .  S
O306        C324   1.282       .  A
O306       Cd315   2.111       .  S
O307        C321   1.280       .  A
O307       Cd311   2.074       .  S
O308        C319   1.279       .  A
O308       Cd311   2.100       .  S
Zn309       O320   2.012       .  S
Zn309       O322   1.971       .  S
Zn309       O314   1.884       .  S
O310        C321   1.279       .  A
O310       Cd315   2.080       .  S
Cd311       O313   2.051       .  S
Cd311       O314   1.960       .  S
Cd312       O316   2.088       .  S
Cd312       O325   2.053       .  S
Cd312       O314   1.975       .  S
O313        C323   1.275       .  A
O314       Cd315   1.981       .  S
Cd315       O317   2.085       .  S
O316        C323   1.280       .  A
C318        O322   1.272       .  A
C318       C2524   1.479       .  S
C319       C2507   1.489       .  S
C321       C2667   1.488       .  S
C323       C2534   1.479       .  S
C324        O325   1.273       .  A
C324       C2517   1.490       .  S
O326        C342   1.272       .  A
O326       Zn332   2.010   1_455  S
C327        O343   1.276       .  A
C327        O340   1.278       .  A
C327       C2454   1.480       .  S
O328        C341   1.281       .  A
O328       Cd335   2.090       .  S
O329        C347   1.280       .  A
O329       Cd338   2.102       .  S
O330        C344   1.278       .  A
O330       Cd334   2.072       .  S
O331        C342   1.277       .  A
O331       Cd334   2.093       .  S
Zn332       O343   1.998       .  S
Zn332       O345   1.975       .  S
Zn332       O337   1.886       .  S
O333        C344   1.276       .  A
O333       Cd338   2.061   1_455  S
Cd334       O336   2.045       .  S
Cd334       O337   1.962   1_455  S
Cd335       O339   2.088   1_655  S
Cd335       O348   2.071       .  S
Cd335       O337   1.971       .  S
O336        C346   1.275       .  A
O337       Cd338   1.976       .  S
Cd338       O340   2.073       .  S
O339        C346   1.281       .  A
C341        O345   1.271       .  A
C341       C2487   1.481       .  S
C342       C2477   1.486       .  S
C344       C2464   1.479       .  S
C346       C2557   1.473       .  S
C347        O348   1.276       .  A
C347       C2627   1.492       .  S
C349        C350   1.543       .  S
C349        C355   1.532       .  S
C349        C353   1.541       .  S
C349       C2444   1.530       .  S
C350        H357   1.081       .  S
C350        C351   1.366       .  D
C351        C352   1.545       .  S
C351       C2474   1.489       .  S
C352        C356   1.533       .  S
C352        C354   1.548       .  S
C352        H358   1.109       .  S
C353        H359   1.084       .  S
C353        C354   1.374       .  D
C354       C2437   1.498       .  S
C355        H360   1.087       .  S
C355        C356   1.355       .  D
C356       C3217   1.472       .  S
C361        C362   1.539       .  S
C361        C367   1.529       .  S
C361        C365   1.536       .  S
C361       C2947   1.525       .  S
C362        H369   1.081       .  S
C362        C363   1.371       .  D
C363        C364   1.556       .  S
C363       C3084   1.507       .  S
C364        C368   1.542       .  S
C364        C366   1.550       .  S
C364        H370   1.107       .  S
C365        H371   1.086       .  S
C365        C366   1.366       .  D
C366       C2424   1.489       .  S
C367        H372   1.087       .  S
C367        C368   1.359       .  D
C368       C2867   1.488       .  S
C373        C374   1.551       .  S
C373        C379   1.529       .  S
C373        C377   1.534       .  S
C373       C2707   1.528       .  S
C374        H381   1.082       .  S
C374        C375   1.372       .  D
C375        C376   1.541       .  S
C375       C2414   1.490       .  S
C376        C380   1.540       .  S
C376        C378   1.548       .  S
C376        H382   1.110       .  S
C377        H383   1.086       .  S
C377        C378   1.365       .  D
C378       C2404   1.488       .  S
C379        H384   1.086       .  S
C379        C380   1.358       .  D
C380       C2484   1.482       .  S
C385        C386   1.542       .  S
C385        C391   1.531       .  S
C385        C389   1.541       .  S
C385       C2887   1.527       .  S
C386        H393   1.086       .  S
C386        C387   1.371       .  D
C387        C388   1.544       .  S
C387       C2394   1.487       .  S
C388        C392   1.534       .  S
C388        C390   1.542       .  S
C388        H394   1.111       .  S
C389        H395   1.081       .  S
C389        C390   1.365       .  D
C390       C2844   1.485       .  S
C391        H396   1.087       .  S
C391        C392   1.357       .  D
C392       C2537   1.473       .  S
C397        C398   1.538       .  S
C397        C403   1.528       .  S
C397        C401   1.536       .  S
C397       C2384   1.526       .  S
C398        H405   1.078       .  S
C398        C399   1.373       .  D
C399        C400   1.560       .  S
C399       C2514   1.514       .  S
C400        C404   1.537       .  S
C400        C402   1.551       .  S
C400        H406   1.103       .  S
C401        H407   1.085       .  S
C401        C402   1.369       .  D
C402       C2374   1.496       .  S
C403        H408   1.087       .  S
C403        C404   1.357       .  D
C404       C2364   1.484       .  S
C409        C410   1.548       .  S
C409        C415   1.530       .  S
C409        C413   1.536       .  S
C409       C2357   1.526       .  S
C410        H417   1.082       .  S
C410        C411   1.369       .  D
C411        C412   1.540       .  S
C411       C2347   1.482       .  S
C412        C416   1.540       .  S
C412        C414   1.551       .  S
C412        H418   1.109       .  S
C413        H419   1.084       .  S
C413        C414   1.370       .  D
C414       C3194   1.502       .  S
C415        H420   1.087       .  S
C415        C416   1.354       .  D
C416       C3097   1.477       .  S
O421        C437   1.278       .  A
O421       Zn427   2.049       .  S
C422        O438   1.277       .  A
C422        O435   1.275       .  A
C422       C2417   1.488       .  S
O423        C436   1.278       .  A
O423       Cd430   2.089       .  S
O424        C442   1.274       .  A
O424       Cd433   2.056       .  S
O425        C439   1.276       .  A
O425       Cd429   2.084   1_655  S
O426        C437   1.274       .  A
O426       Cd429   2.054       .  S
Zn427       O438   2.037   1_455  S
Zn427       O440   2.013       .  S
Zn427       O432   1.953   1_455  S
O428        C439   1.275       .  A
O428       Cd433   2.066       .  S
Cd429       O431   2.062       .  S
Cd429       O432   1.998   1_455  S
Cd430       O434   2.102       .  S
Cd430       O443   2.096   1_455  S
Cd430       O432   2.023   1_455  S
O431        C441   1.274       .  A
O432       Cd433   1.996       .  S
Cd433       O435   2.080       .  S
O434        C441   1.279       .  A
C436        O440   1.275       .  A
C436       C2434   1.486       .  S
C437       C2344   1.484       .  S
C439       C2397   1.480       .  S
C441       C2427   1.486       .  S
C442        O443   1.278       .  A
C442       C2377   1.485       .  S
C444        C445   1.548       .  S
C444        C450   1.533       .  S
C444        C448   1.535       .  S
C444       C2334   1.526       .  S
C445        H452   1.080       .  S
C445        C446   1.373       .  D
C446        C447   1.547       .  S
C446       C2327   1.493       .  S
C447        C451   1.535       .  S
C447        C449   1.541       .  S
C447        H453   1.110       .  S
C448        H454   1.086       .  S
C448        C449   1.361       .  D
C449       C2894   1.479       .  S
C450        H455   1.087       .  S
C450        C451   1.357       .  D
C451       C3034   1.473       .  S
C456        C457   1.536       .  S
C456        C462   1.531       .  S
C456        C460   1.545       .  S
C456       C2314   1.524       .  S
C457        H464   1.085       .  S
C457        C458   1.369       .  D
C458        C459   1.549       .  S
C458       C3137   1.493       .  S
C459        C463   1.535       .  S
C459        C461   1.542       .  S
C459        H465   1.108       .  S
C460        H466   1.082       .  S
C460        C461   1.367       .  D
C461       C2304   1.486       .  S
C462        H467   1.087       .  S
C462        C463   1.357       .  D
C463       C2917   1.479       .  S
C468        C469   1.546       .  S
C468        C474   1.528       .  S
C468        C472   1.534       .  S
C468       C2294   1.524       .  S
C469        H476   1.082       .  S
C469        C470   1.373       .  D
C470        C471   1.544       .  S
C470       C2284   1.493       .  S
C471        C475   1.534       .  S
C471        C473   1.549       .  S
C471        H477   1.108       .  S
C472        H478   1.086       .  S
C472        C473   1.368       .  D
C473       C2264   1.491       .  S
C474        H479   1.088       .  S
C474        C475   1.353       .  D
C475       C2274   1.470       .  S
C480        C481   1.539       .  S
C480        C486   1.528       .  S
C480        C484   1.541       .  S
C480       C2254   1.523       .  S
C481        H488   1.083       .  S
C481        C482   1.368       .  D
C482        C483   1.548       .  S
C482       C2234   1.492       .  S
C483        C487   1.538       .  S
C483        C485   1.542       .  S
C483        H489   1.110       .  S
C484        H490   1.085       .  S
C484        C485   1.367       .  D
C485       C2244   1.483       .  S
C486        H491   1.087       .  S
C486        C487   1.358       .  D
C487       C2224   1.479       .  S
C492        C493   1.542       .  S
C492        C498   1.528       .  S
C492        C496   1.539       .  S
C492       C2214   1.527       .  S
C493        H500   1.081       .  S
C493        C494   1.374       .  D
C494        C495   1.550       .  S
C494       C2204   1.493       .  S
C495        C499   1.536       .  S
C495        C497   1.544       .  S
C495        H501   1.110       .  S
C496        H502   1.086       .  S
C496        C497   1.363       .  D
C497       C2194   1.485       .  S
C498        H503   1.087       .  S
C498        C499   1.356       .  D
C499       C3157   1.473       .  S
C504        C505   1.539       .  S
C504        C510   1.526       .  S
C504        C508   1.539       .  S
C504       C3067   1.521       .  S
C505        H512   1.083       .  S
C505        C506   1.371       .  D
C506        C507   1.549       .  S
C506       C3027   1.493       .  S
C507        C511   1.538       .  S
C507        C509   1.539       .  S
C507        H513   1.110       .  S
C508        H514   1.085       .  S
C508        C509   1.363       .  D
C509       C2184   1.475       .  S
C510        H515   1.087       .  S
C510        C511   1.357       .  D
C511       C2177   1.475       .  S
O516        C532   1.275       .  A
O516       Zn522   2.024       .  S
C517        O533   1.276       .  A
C517        O530   1.275       .  A
C517       C2307   1.483       .  S
O518        C531   1.277       .  A
O518       Cd525   2.084       .  S
O519        C537   1.271       .  A
O519       Cd528   2.047       .  S
O520        C534   1.275       .  A
O520       Cd524   2.067   1_554  S
O521        C532   1.275       .  A
O521       Cd524   2.074       .  S
Zn522       O533   2.032   1_556  S
Zn522       O535   2.003       .  S
Zn522       O527   1.943   1_556  S
O523        C534   1.274       .  A
O523       Cd528   2.065       .  S
Cd524       O526   2.071       .  S
Cd524       O527   2.002   1_556  S
Cd525       O529   2.090       .  S
Cd525       O538   2.107   1_556  S
Cd525       O527   2.016   1_556  S
O526        C536   1.275       .  A
O527       Cd528   1.993       .  S
Cd528       O530   2.072       .  S
O529        C536   1.279       .  A
C531        O535   1.273       .  A
C531       C2207   1.478       .  S
C532       C2247   1.483       .  S
C534       C2187   1.471       .  S
C536       C2287   1.488       .  S
C537        O538   1.279       .  A
C537       C2324   1.479       .  S
O539        C555   1.273       .  A
O539       Zn545   2.014       .  S
C540        O556   1.276       .  A
C540        O553   1.277       .  A
C540       C2447   1.485       .  S
O541        C554   1.280       .  A
O541       Cd548   2.093       .  S
O542        C560   1.280       .  A
O542       Cd551   2.102       .  S
O543        C557   1.276       .  A
O543       Cd547   2.061       .  S
O544        C555   1.275       .  A
O544       Cd547   2.076       .  S
Zn545       O556   2.012       .  S
Zn545       O558   1.974       .  S
Zn545       O550   1.895       .  S
O546        C557   1.278       .  A
O546       Cd551   2.067       .  S
Cd547       O549   2.047       .  S
Cd547       O550   1.960       .  S
Cd548       O552   2.094       .  S
Cd548       O561   2.065       .  S
Cd548       O550   1.980       .  S
O549        C559   1.274       .  A
O550       Cd551   1.982       .  S
Cd551       O553   2.077       .  S
O552        C559   1.280       .  A
C554        O558   1.271       .  A
C554       C2167   1.458       .  S
C555       C2157   1.484       .  S
C557       C2147   1.477       .  S
C559       C2277   1.481       .  S
C560        O561   1.274       .  A
C560       C2237   1.483       .  S
C562        C563   1.541       .  S
C562        C568   1.533       .  S
C562        C566   1.545       .  S
C562       C2697   1.529       .  S
C563        H570   1.086       .  S
C563        C564   1.371       .  D
C564        C565   1.545       .  S
C564       C2134   1.494       .  S
C565        C569   1.532       .  S
C565        C567   1.548       .  S
C565        H571   1.107       .  S
C566        H572   1.079       .  S
C566        C567   1.369       .  D
C567       C2907   1.498       .  S
C568        H573   1.087       .  S
C568        C569   1.354       .  D
C569       C2127   1.469       .  S
C574        C575   1.540       .  S
C574        C580   1.530       .  S
C574        C578   1.544       .  S
C574       C2114   1.527       .  S
C575        H582   1.086       .  S
C575        C576   1.370       .  D
C576        C577   1.545       .  S
C576       C2104   1.496       .  S
C577        C581   1.538       .  S
C577        C579   1.551       .  S
C577        H583   1.103       .  S
C578        H584   1.079       .  S
C578        C579   1.372       .  D
C579       C2094   1.507       .  S
C580        H585   1.088       .  S
C580        C581   1.354       .  D
C581       C2527   1.473       .  S
C586        C587   1.538       .  S
C586        C592   1.529       .  S
C586        C590   1.541       .  S
C586       C2084   1.520       .  S
C587        H594   1.086       .  S
C587        C588   1.369       .  D
C588        C589   1.546       .  S
C588       C2074   1.489       .  S
C589        C593   1.535       .  S
C589        C591   1.542       .  S
C589        H595   1.109       .  S
C590        H596   1.082       .  S
C590        C591   1.364       .  D
C591       C3204   1.475       .  S
C592        H597   1.087       .  S
C592        C593   1.356       .  D
C593       C2164   1.472       .  S
C598        C599   1.535       .  S
C598        C604   1.532       .  S
C598        C602   1.547       .  S
C598       C3057   1.528       .  S
C599        H606   1.084       .  S
C599        C600   1.370       .  D
C600        C601   1.551       .  S
C600       C2054   1.497       .  S
C601        C605   1.535       .  S
C601        C603   1.536       .  S
C601        H607   1.109       .  S
C602        H608   1.082       .  S
C602        C603   1.368       .  D
C603       C2064   1.476       .  S
C604        H609   1.087       .  S
C604        C605   1.358       .  D
C605       C3227   1.481       .  S
C610        C611   1.533       .  S
C610        C616   1.530       .  S
C610        C614   1.550       .  S
C610       C3007   1.526       .  S
C611        H618   1.087       .  S
C611        C612   1.362       .  D
C612        C613   1.543       .  S
C612       C2504   1.481       .  S
C613        C617   1.539       .  S
C613        C615   1.543       .  S
C613        H619   1.111       .  S
C614        H620   1.082       .  S
C614        C615   1.373       .  D
C615       C2044   1.488       .  S
C616        H621   1.087       .  S
C616        C617   1.358       .  D
C617       C2924   1.479       .  S
C622        C623   1.536       .  S
C622        C628   1.528       .  S
C622        C626   1.546       .  S
C622       C2937   1.522       .  S
C623        H630   1.086       .  S
C623        C624   1.364       .  D
C624        C625   1.542       .  S
C624       C2154   1.479       .  S
C625        C629   1.535       .  S
C625        C627   1.539       .  S
C625        H631   1.111       .  S
C626        H632   1.083       .  S
C626        C627   1.370       .  D
C627       C2034   1.481       .  S
C628        H633   1.087       .  S
C628        C629   1.357       .  D
C629       C2027   1.471       .  S
O634        C650   1.275       .  A
O634       Zn640   2.019       .  S
C635        O651   1.276       .  A
C635        O648   1.275       .  A
C635       C2047   1.482       .  S
O636        C649   1.277       .  A
O636       Cd643   2.094       .  S
O637        C655   1.273       .  A
O637       Cd646   2.050       .  S
O638        C652   1.273       .  A
O638       Cd642   2.065       .  S
O639        C650   1.274       .  A
O639       Cd642   2.065       .  S
Zn640       O651   2.037       .  S
Zn640       O653   2.008       .  S
Zn640       O645   1.946       .  S
O641        C652   1.275       .  A
O641       Cd646   2.076       .  S
Cd642       O644   2.053       .  S
Cd642       O645   1.996       .  S
Cd643       O647   2.096       .  S
Cd643       O656   2.104       .  S
Cd643       O645   2.022       .  S
O644        C654   1.273       .  A
O645       Cd646   1.992       .  S
Cd646       O648   2.067       .  S
O647        C654   1.279       .  A
C649        O653   1.274       .  A
C649       C2107   1.480       .  S
C650       C2037   1.473       .  S
C652       C2067   1.484       .  S
C654       C2077   1.483       .  S
C655        O656   1.280       .  A
C655       C2137   1.481       .  S
O657        C673   1.274       .  A
O657       Zn663   1.987       .  S
C658        O674   1.271       .  A
C658        O671   1.279       .  A
C658       C2197   1.485       .  S
O659        C672   1.282       .  A
O659       Cd666   2.096       .  S
O660        C678   1.275       .  A
O660       Cd669   2.051       .  S
O661        C675   1.274       .  A
O661       Cd665   2.046       .  S
O662        C673   1.275       .  A
O662       Cd665   2.065       .  S
Zn663       O674   2.001       .  S
Zn663       O676   1.975       .  S
Zn663       O668   1.888       .  S
O664        C675   1.281       .  A
O664       Cd669   2.094       .  S
Cd665       O667   2.081       .  S
Cd665       O668   1.974       .  S
Cd666       O670   2.071       .  S
Cd666       O679   2.093       .  S
Cd666       O668   1.972       .  S
O667        C677   1.277       .  A
O668       Cd669   1.965       .  S
Cd669       O671   2.106       .  S
O670        C677   1.275       .  A
C672        O676   1.271       .  A
C672       C2227   1.483       .  S
C673       C2087   1.476       .  S
C675       C1994   1.476       .  S
C677       C2004   1.485       .  S
C678        O679   1.282       .  A
C678       C2014   1.481       .  S
O680        C696   1.277       .  A
O680       Zn686   2.006       .  S
C681        O697   1.274       .  A
C681        O694   1.275       .  A
C681       C1954   1.484       .  S
O682        C695   1.281       .  A
O682       Cd689   2.097       .  S
O683        C701   1.273       .  A
O683       Cd692   2.038       .  S
O684        C698   1.277       .  A
O684       Cd688   2.072   1_545  S
O685        C696   1.278       .  A
O685       Cd688   2.072       .  S
Zn686       O697   2.022   1_565  S
Zn686       O699   1.974       .  S
Zn686       O691   1.887   1_565  S
O687        C698   1.276       .  A
O687       Cd692   2.057       .  S
Cd688       O690   2.103       .  S
Cd688       O691   1.976   1_565  S
Cd689       O693   2.069       .  S
Cd689       O702   2.096   1_565  S
Cd689       O691   1.972   1_565  S
O690        C700   1.281       .  A
O691       Cd692   1.954       .  S
Cd692       O694   2.079       .  S
O693        C700   1.275       .  A
C695        O699   1.271       .  A
C695       C1977   1.483       .  S
C696       C1944   1.480       .  S
C698       C2614   1.481       .  S
C700       C1967   1.487       .  S
C701        O702   1.282       .  A
C701       C1984   1.473       .  S
O703        C719   1.272       .  A
O703       Zn709   2.005   1_556  S
C704        O720   1.276       .  A
C704        O717   1.277       .  A
C704       C1894   1.474       .  S
O705        C718   1.283       .  A
O705       Cd712   2.104       .  S
O706        C724   1.279       .  A
O706       Cd715   2.091       .  S
O707        C721   1.277       .  A
O707       Cd711   2.069       .  S
O708        C719   1.275       .  A
O708       Cd711   2.084       .  S
Zn709       O720   2.008       .  S
Zn709       O722   1.982       .  S
Zn709       O714   1.888   1_554  S
O710        C721   1.276       .  A
O710       Cd715   2.060   1_556  S
Cd711       O713   2.032       .  S
Cd711       O714   1.962       .  S
Cd712       O716   2.107   1_554  S
Cd712       O725   2.076       .  S
Cd712       O714   1.977   1_554  S
O713        C723   1.273       .  A
O714       Cd715   1.973   1_556  S
Cd715       O717   2.072       .  S
O716        C723   1.283       .  A
C718        O722   1.273       .  A
C718       C1934   1.486       .  S
C719       C1917   1.488       .  S
C721       C2257   1.479       .  S
C723       C1927   1.483       .  S
C724        O725   1.276       .  A
C724       C1904   1.488       .  S
C726        C727   1.545       .  S
C726        C732   1.530       .  S
C726        C730   1.544       .  S
C726       C1884   1.529       .  S
C727        H734   1.085       .  S
C727        C728   1.369       .  D
C728        C729   1.540       .  S
C728       C1874   1.484       .  S
C729        C733   1.533       .  S
C729        C731   1.548       .  S
C729        H735   1.108       .  S
C730        H736   1.082       .  S
C730        C731   1.373       .  D
C731       C2007   1.500       .  S
C732        H737   1.087       .  S
C732        C733   1.354       .  D
C733       C1924   1.470       .  S
C738        C739   1.534       .  S
C738        C744   1.530       .  S
C738        C742   1.547       .  S
C738       C3127   1.526       .  S
C739        H746   1.086       .  S
C739        C740   1.362       .  D
C740        C741   1.544       .  S
C740       C1854   1.481       .  S
C741        C745   1.535       .  S
C741        C743   1.550       .  S
C741        H747   1.107       .  S
C742        H748   1.080       .  S
C742        C743   1.375       .  D
C743       C1864   1.501       .  S
C744        H749   1.087       .  S
C744        C745   1.356       .  D
C745       C2017   1.472       .  S
C750        C751   1.544       .  S
C750        C756   1.529       .  S
C750        C754   1.541       .  S
C750       C1847   1.527       .  S
C751        H758   1.080       .  S
C751        C752   1.372       .  D
C752        C753   1.550       .  S
C752       C1907   1.499       .  S
C753        C757   1.538       .  S
C753        C755   1.540       .  S
C753        H759   1.109       .  S
C754        H760   1.086       .  S
C754        C755   1.369       .  D
C755       C1834   1.488       .  S
C756        H761   1.087       .  S
C756        C757   1.355       .  D
C757       C1974   1.480       .  S
C762        C763   1.543       .  S
C762        C768   1.530       .  S
C762        C766   1.540       .  S
C762       C1824   1.529       .  S
C763        H770   1.086       .  S
C763        C764   1.368       .  D
C764        C765   1.539       .  S
C764       C1817   1.484       .  S
C765        C769   1.544       .  S
C765        C767   1.546       .  S
C765        H771   1.109       .  S
C766        H772   1.082       .  S
C766        C767   1.368       .  D
C767       C1957   1.488       .  S
C768        H773   1.087       .  S
C768        C769   1.360       .  D
C769       C3047   1.490       .  S
C774        C775   1.545       .  S
C774        C780   1.527       .  S
C774        C778   1.534       .  S
C774       C1804   1.524       .  S
C775        H782   1.085       .  S
C775        C776   1.369       .  D
C776        C777   1.542       .  S
C776       C1797   1.485       .  S
C777        C781   1.541       .  S
C777        C779   1.557       .  S
C777        H783   1.107       .  S
C778        H784   1.080       .  S
C778        C779   1.368       .  D
C779       C1787   1.504       .  S
C780        H785   1.087       .  S
C780        C781   1.357       .  D
C781       C1774   1.483       .  S
C786        C787   1.533       .  S
C786        C792   1.530       .  S
C786        C790   1.546       .  S
C786       C2767   1.524       .  S
C787        H794   1.087       .  S
C787        C788   1.360       .  D
C788        C789   1.543       .  S
C788       C3017   1.477       .  S
C789        C793   1.539       .  S
C789        C791   1.550       .  S
C789        H795   1.107       .  S
C790        H796   1.080       .  S
C790        C791   1.375       .  D
C791       C1767   1.499       .  S
C792        H797   1.087       .  S
C792        C793   1.358       .  D
C793       C1757   1.480       .  S
O798        C814   1.277       .  A
O798       Zn804   2.043   1_565  S
C799        O815   1.275       .  A
C799        O812   1.274       .  A
C799       C1794   1.482       .  S
O800        C813   1.278   1_554  A
O800       Cd807   2.096       .  S
O801        C819   1.274       .  A
O801       Cd810   2.059       .  S
O802        C816   1.277       .  A
O802       Cd806   2.092   1_545  S
O803        C814   1.275       .  A
O803       Cd806   2.067   1_556  S
Zn804       O815   2.025       .  S
Zn804       O817   2.008   1_545  S
Zn804       O809   1.949   1_556  S
O805        C816   1.274       .  A
O805       Cd810   2.054       .  S
Cd806       O808   2.068       .  S
Cd806       O809   2.003   1_565  S
Cd807       O811   2.097       .  S
Cd807       O820   2.100   1_565  S
Cd807       O809   2.022   1_565  S
O808        C818   1.275       .  A
O809       Cd810   1.996       .  S
Cd810       O812   2.075   1_554  S
O811        C818   1.279       .  A
C813        O817   1.274       .  A
C813       C1867   1.488       .  S
C814       C1877   1.485       .  S
C816       C1814   1.481       .  S
C818       C1837   1.486       .  S
C819        O820   1.279       .  A
C819       C1764   1.488       .  S
O821        C837   1.277       .  A
O821       Zn827   2.024       .  S
C822        O838   1.274       .  A
C822        O835   1.275       .  A
C822       C1717   1.481       .  S
O823        C836   1.283       .  A
O823       Cd830   2.105       .  S
O824        C842   1.274       .  A
O824       Cd833   2.044       .  S
O825        C839   1.277       .  A
O825       Cd829   2.074   1_455  S
O826        C837   1.277       .  A
O826       Cd829   2.077       .  S
Zn827       O838   2.015   1_655  S
Zn827       O840   1.996       .  S
Zn827       O832   1.896       .  S
O828        C839   1.276       .  A
O828       Cd833   2.058       .  S
Cd829       O831   2.095       .  S
Cd829       O832   1.980       .  S
Cd830       O834   2.064       .  S
Cd830       O843   2.103   1_655  S
Cd830       O832   1.978       .  S
O831        C841   1.280       .  A
O832       Cd833   1.959   1_655  S
Cd833       O835   2.070       .  S
O834        C841   1.275       .  A
C836        O840   1.275       .  A
C836       C1734   1.489       .  S
C837       C2687   1.474       .  S
C839       C2354   1.479       .  S
C841       C1724   1.482       .  S
C842        O843   1.282       .  A
C842       C1744   1.484       .  S
O844        C860   1.279       .  A
O844       Zn850   2.023       .  S
C845        O861   1.274       .  A
C845        O858   1.277       .  A
C845       C1694   1.484       .  S
O846        C859   1.278       .  A
O846       Cd853   2.079       .  S
O847        C865   1.276       .  A
O847       Cd856   2.062       .  S
O848        C862   1.276       .  A
O848       Cd852   2.066   1_554  S
O849        C860   1.278       .  A
O849       Cd852   2.076       .  S
Zn850       O861   2.016   1_556  S
Zn850       O863   1.995       .  S
Zn850       O855   1.900   1_556  S
O851        C862   1.278       .  A
O851       Cd856   2.070       .  S
Cd852       O854   2.104       .  S
Cd852       O855   1.985   1_556  S
Cd853       O857   2.046       .  S
Cd853       O866   2.088   1_556  S
Cd853       O855   1.971   1_556  S
O854        C864   1.280       .  A
O855       Cd856   1.967       .  S
Cd856       O858   2.092       .  S
O857        C864   1.272       .  A
C859        O863   1.272       .  A
C859       C1704   1.462       .  S
C860       C1684   1.483       .  S
C862       C2337   1.482       .  S
C864       C1784   1.485       .  S
C865        O866   1.280       .  A
C865       C1754   1.480       .  S
O867        C883   1.276       .  A
O867       Zn873   2.002       .  S
C868        O884   1.273       .  A
C868        O881   1.275       .  A
C868       C2547   1.477       .  S
O869        C882   1.282       .  A
O869       Cd876   2.105       .  S
O870        C888   1.275       .  A
O870       Cd879   2.044       .  S
O871        C885   1.277       .  A
O871       Cd875   2.068   1_565  S
O872        C883   1.277       .  A
O872       Cd875   2.066       .  S
Zn873       O884   2.006   1_545  S
Zn873       O886   1.978       .  S
Zn873       O878   1.884       .  S
O874        C885   1.277       .  A
O874       Cd879   2.077       .  S
Cd875       O877   2.086       .  S
Cd875       O878   1.970       .  S
Cd876       O880   2.065       .  S
Cd876       O889   2.097   1_545  S
Cd876       O878   1.977       .  S
O877        C887   1.279       .  A
O878       Cd879   1.962   1_545  S
Cd879       O881   2.076       .  S
O880        C887   1.275       .  A
C882        O886   1.272       .  A
C882       C2574   1.486       .  S
C883       C1654   1.476       .  S
C885       C1887   1.483       .  S
C887       C1664   1.483       .  S
C888        O889   1.282       .  A
C888       C1674   1.479       .  S
C890        C891   1.547       .  S
C890        C896   1.528       .  S
C890        C894   1.538       .  S
C890       C1644   1.525       .  S
C891        H898   1.085       .  S
C891        C892   1.367       .  D
C892        C893   1.536       .  S
C892       C1634   1.479       .  S
C893        C897   1.538       .  S
C893        C895   1.549       .  S
C893        H899   1.110       .  S
C894        H900   1.083       .  S
C894        C895   1.370       .  D
C895       C1667   1.496       .  S
C896        H901   1.087       .  S
C896        C897   1.357       .  D
C897       C1624   1.480       .  S
C902        C903   1.544       .  S
C902        C908   1.531       .  S
C902        C906   1.537       .  S
C902       C1947   1.526       .  S
C903        H910   1.086       .  S
C903        C904   1.371       .  D
C904        C905   1.542       .  S
C904       C1614   1.484       .  S
C905        C909   1.538       .  S
C905        C907   1.543       .  S
C905        H911   1.111       .  S
C906        H912   1.083       .  S
C906        C907   1.361       .  D
C907       C1714   1.480       .  S
C908        H913   1.087       .  S
C908        C909   1.359       .  D
C909       C1937   1.479       .  S
C914        C915   1.549       .  S
C914        C920   1.531       .  S
C914        C918   1.536       .  S
C914       C2827   1.528       .  S
C915        H922   1.082       .  S
C915        C916   1.370       .  D
C916        C917   1.543       .  S
C916       C1604   1.486       .  S
C917        C921   1.538       .  S
C917        C919   1.546       .  S
C917        H923   1.110       .  S
C918        H924   1.086       .  S
C918        C919   1.366       .  D
C919       C1697   1.489       .  S
C920        H925   1.087       .  S
C920        C921   1.358       .  D
C921       C2807   1.479       .  S
C926        C927   1.542       .  S
C926        C932   1.529       .  S
C926        C930   1.539       .  S
C926       C3117   1.527       .  S
C927        H934   1.081       .  S
C927        C928   1.367       .  D
C928        C929   1.550       .  S
C928       C2784   1.500       .  S
C929        C933   1.540       .  S
C929        C931   1.551       .  S
C929        H935   1.107       .  S
C930        H936   1.084       .  S
C930        C931   1.372       .  D
C931       C1594   1.497       .  S
C932        H937   1.087       .  S
C932        C933   1.357       .  D
C933       C1737   1.486       .  S
C938        C939   1.542       .  S
C938        C944   1.529       .  S
C938        C942   1.543       .  S
C938       C2467   1.525       .  S
C939        H946   1.083       .  S
C939        C940   1.363       .  D
C940        C941   1.541       .  S
C940       C1914   1.478       .  S
C941        C945   1.535       .  S
C941        C943   1.548       .  S
C941        H947   1.108       .  S
C942        H948   1.085       .  S
C942        C943   1.373       .  D
C943       C1587   1.497       .  S
C944        H949   1.087       .  S
C944        C945   1.356       .  D
C945       C1677   1.472       .  S
C950        C951   1.535       .  S
C950        C956   1.525       .  S
C950        C954   1.544       .  S
C950       C1574   1.526       .  S
C951        H958   1.086       .  S
C951        C952   1.366       .  D
C952        C953   1.547       .  S
C952       C1557   1.488       .  S
C953        C957   1.542       .  S
C953        C955   1.547       .  S
C953        H959   1.108       .  S
C954        H960   1.083       .  S
C954        C955   1.372       .  D
C955       C1564   1.493       .  S
C956        H961   1.087       .  S
C956        C957   1.359       .  D
C957       C1707   1.486       .  S
O962        C978   1.277       .  A
O962       Zn968   2.050   1_554  S
C963        O979   1.276       .  A
C963        O976   1.275       .  A
C963       C1637   1.485       .  S
O964        C977   1.278       .  A
O964       Cd971   2.091   1_545  S
O965        C983   1.274       .  A
O965       Cd974   2.056       .  S
O966        C980   1.274       .  A
O966       Cd970   2.077   1_465  S
O967        C978   1.275       .  A
O967       Cd970   2.062       .  S
Zn968       O979   2.026   1_655  S
Zn968       O981   2.022       .  S
Zn968       O973   1.955   1_655  S
O969        C980   1.275       .  A
O969       Cd974   2.069   1_554  S
Cd970       O972   2.057   1_545  S
Cd970       O973   1.996   1_654  S
Cd971       O975   2.102       .  S
Cd971       O984   2.110       .  S
Cd971       O973   2.024   1_665  S
O972        C982   1.273       .  A
O973       Cd974   1.999   1_545  S
Cd974       O976   2.077   1_565  S
O975        C982   1.279   1_556  A
C977        O981   1.275       .  A
C977       C1567   1.486       .  S
C978       C1607   1.485       .  S
C980       C1617   1.483       .  S
C982       C1597   1.482       .  S
C983        O984   1.280   1_455  A
C983       C1584   1.489       .  S
O985       C1001   1.277       .  A
O985       Zn991   2.012       .  S
C986       O1002   1.274       .  A
C986        O999   1.277       .  A
C986       C1537   1.485       .  S
O987       C1000   1.282       .  A
O987       Cd994   2.096       .  S
O988       C1006   1.275       .  A
O988       Cd997   2.048       .  S
O989       C1003   1.276       .  A
O989       Cd993   2.066   1_554  S
O990       C1001   1.277       .  A
O990       Cd993   2.069       .  S
Zn991      O1002   2.012   1_556  S
Zn991      O1004   1.989       .  S
Zn991       O996   1.888   1_556  S
O992       C1003   1.278       .  A
O992       Cd997   2.080       .  S
Cd993       O995   2.084       .  S
Cd993       O996   1.972   1_556  S
Cd994       O998   2.067       .  S
Cd994      O1007   2.095   1_556  S
Cd994       O996   1.977   1_556  S
O995       C1005   1.278       .  A
O996       Cd997   1.963       .  S
Cd997       O999   2.086       .  S
O998       C1005   1.274       .  A
C1000      O1004   1.273       .  A
C1000      C1547   1.485       .  S
C1001      C1647   1.473       .  S
C1003      C1827   1.478       .  S
C1005      C2267   1.480       .  S
C1006      O1007   1.282       .  A
C1006      C2174   1.479       .  S
O1008      C1024   1.277       .  A
O1008     Zn1014   2.011       .  S
C1009      O1025   1.274       .  A
C1009      O1022   1.278       .  A
C1009      C2407   1.489       .  S
O1010      C1023   1.280       .  A
O1010     Cd1017   2.088       .  S
O1011      C1029   1.275       .  A
O1011     Cd1020   2.052       .  S
O1012      C1026   1.277       .  A
O1012     Cd1016   2.068       .  S
O1013      C1024   1.277       .  A
O1013     Cd1016   2.069       .  S
Zn1014     O1025   2.014       .  S
Zn1014     O1027   1.985       .  S
Zn1014     O1019   1.891       .  S
O1015      C1026   1.279       .  A
O1015     Cd1020   2.072       .  S
Cd1016     O1018   2.102       .  S
Cd1016     O1019   1.977       .  S
Cd1017     O1021   2.066       .  S
Cd1017     O1030   2.082       .  S
Cd1017     O1019   1.970       .  S
O1018      C1028   1.280       .  A
O1019     Cd1020   1.966       .  S
Cd1020     O1022   2.100       .  S
O1021      C1028   1.275       .  A
C1023      O1027   1.273       .  A
C1023      C2367   1.483       .  S
C1024      C2117   1.483       .  S
C1026      C2217   1.484       .  S
C1028      C1514   1.487       .  S
C1029      O1030   1.279       .  A
C1029      C1527   1.474       .  S
O1031      C1047   1.274       .  A
O1031     Zn1037   2.024   1_655  S
C1032      O1048   1.276       .  A
C1032      O1045   1.277       .  A
C1032      C2597   1.482       .  S
O1033      C1046   1.281       .  A
O1033     Cd1040   2.092       .  S
O1034      C1052   1.279       .  A
O1034     Cd1043   2.092       .  S
O1035      C1049   1.278       .  A
O1035     Cd1039   2.077       .  S
O1036      C1047   1.276       .  A
O1036     Cd1039   2.084       .  S
Zn1037     O1048   1.998       .  S
Zn1037     O1050   1.988       .  S
Zn1037     O1042   1.897       .  S
O1038      C1049   1.276       .  A
O1038     Cd1043   2.061   1_655  S
Cd1039     O1041   2.044       .  S
Cd1039     O1042   1.959   1_655  S
Cd1040     O1044   2.099   1_455  S
Cd1040     O1053   2.065       .  S
Cd1040     O1042   1.978       .  S
O1041      C1051   1.274       .  A
O1042     Cd1043   1.981       .  S
Cd1043     O1045   2.077       .  S
O1044      C1051   1.281       .  A
C1046      O1050   1.273       .  A
C1046      C1627   1.484       .  S
C1047      C1554   1.480       .  S
C1049      C2387   1.479       .  S
C1051      C1504   1.477       .  S
C1052      O1053   1.275       .  A
C1052      C1494   1.483       .  S
C1054      C1055   1.543       .  S
C1054      C1060   1.527       .  S
C1054      C1058   1.541       .  S
C1054      C1687   1.529       .  S
C1055      H1062   1.084       .  S
C1055      C1056   1.373       .  D
C1056      C1057   1.548       .  S
C1056      C1487   1.496       .  S
C1057      C1061   1.536       .  S
C1057      C1059   1.549       .  S
C1057      H1063   1.105       .  S
C1058      H1064   1.084       .  S
C1058      C1059   1.369       .  D
C1059      C1517   1.500       .  S
C1060      H1065   1.087       .  S
C1060      C1061   1.356       .  D
C1061      C1507   1.478       .  S
C1066      C1067   1.540       .  S
C1066      C1072   1.530       .  S
C1066      C1070   1.542       .  S
C1066      C2144   1.524       .  S
C1067      H1074   1.081       .  S
C1067      C1068   1.368       .  D
C1068      C1069   1.550       .  S
C1068      C1497   1.492       .  S
C1069      C1073   1.541       .  S
C1069      C1071   1.537       .  S
C1069      H1075   1.110       .  S
C1070      H1076   1.086       .  S
C1070      C1071   1.365       .  D
C1071      C1474   1.475       .  S
C1072      H1077   1.086       .  S
C1072      C1073   1.360       .  D
C1073      C1544   1.487       .  S
C1078      C1079   1.539       .  S
C1078      C1084   1.531       .  S
C1078      C1082   1.543       .  S
C1078      C2457   1.526       .  S
C1079      H1086   1.082       .  S
C1079      C1080   1.363       .  D
C1080      C1081   1.541       .  S
C1080      C3147   1.478       .  S
C1081      C1085   1.535       .  S
C1081      C1083   1.541       .  S
C1081      H1087   1.111       .  S
C1082      H1088   1.086       .  S
C1082      C1083   1.370       .  D
C1083      C1464   1.483       .  S
C1084      H1089   1.087       .  S
C1084      C1085   1.358       .  D
C1085      C1524   1.475       .  S
C1090      C1091   1.553       .  S
C1090      C1096   1.527       .  S
C1090      C1094   1.533       .  S
C1090      C2817   1.525       .  S
C1091      H1098   1.083       .  S
C1091      C1092   1.378       .  D
C1092      C1093   1.546       .  S
C1092      C1454   1.500       .  S
C1093      C1097   1.538       .  S
C1093      C1095   1.541       .  S
C1093      H1099   1.108       .  S
C1094      H1100   1.086       .  S
C1094      C1095   1.360       .  D
C1095      C1534   1.480       .  S
C1096      H1101   1.087       .  S
C1096      C1097   1.357       .  D
C1097      C3107   1.478       .  S
C1102      C1103   1.546       .  S
C1102      C1108   1.530       .  S
C1102      C1106   1.534       .  S
C1102      C2877   1.527       .  S
C1103      H1110   1.081       .  S
C1103      C1104   1.374       .  D
C1104      C1105   1.547       .  S
C1104      C1447   1.495       .  S
C1105      C1109   1.538       .  S
C1105      C1107   1.547       .  S
C1105      H1111   1.108       .  S
C1106      H1112   1.085       .  S
C1106      C1107   1.365       .  D
C1107      C1727   1.493       .  S
C1108      H1113   1.087       .  S
C1108      C1109   1.358       .  D
C1109      C3167   1.483       .  S
C1114      C1115   1.536       .  S
C1114      C1120   1.529       .  S
C1114      C1118   1.544       .  S
C1114      C1897   1.525       .  S
C1115      H1122   1.085       .  S
C1115      C1116   1.365       .  D
C1116      C1117   1.548       .  S
C1116      C3074   1.490       .  S
C1117      C1121   1.536       .  S
C1117      C1119   1.545       .  S
C1117      H1123   1.110       .  S
C1118      H1124   1.085       .  S
C1118      C1119   1.371       .  D
C1119      C1437   1.487       .  S
C1120      H1125   1.087       .  S
C1120      C1121   1.356       .  D
C1121      C1747   1.473       .  S
O1126      C1142   1.277       .  A
O1126     Zn1132   2.033   1_455  S
C1127      O1143   1.277       .  A
C1127      O1140   1.275       .  A
C1127      C1467   1.490       .  S
O1128      C1141   1.278       .  A
O1128     Cd1135   2.091       .  S
O1129      C1147   1.273       .  A
O1129     Cd1138   2.053       .  S
O1130      C1144   1.277       .  A
O1130     Cd1134   2.078   1_556  S
O1131      C1142   1.275       .  A
O1131     Cd1134   2.075       .  S
Zn1132     O1143   2.043   1_554  S
Zn1132     O1145   2.007       .  S
Zn1132     O1137   1.951   1_654  S
O1133      C1144   1.275       .  A
O1133     Cd1138   2.072   1_455  S
Cd1134     O1136   2.072       .  S
Cd1134     O1137   2.000   1_554  S
Cd1135     O1139   2.100   1_655  S
Cd1135     O1148   2.100   1_554  S
Cd1135     O1137   2.022   1_654  S
O1136      C1146   1.276       .  A
O1137     Cd1138   1.996   1_455  S
Cd1138     O1140   2.072       .  S
O1139      C1146   1.278       .  A
C1141      O1145   1.274       .  A
C1141      C1444   1.479       .  S
C1142      C1434   1.482       .  S
C1144      C1477   1.488       .  S
C1146      C1457   1.486       .  S
C1147      O1148   1.278       .  A
C1147      C1484   1.479       .  S
O1149      C1165   1.273       .  A
O1149     Zn1155   2.014       .  S
C1150      O1166   1.277       .  A
C1150      O1163   1.276       .  A
C1150      C1844   1.484       .  S
O1151      C1164   1.283       .  A
O1151     Cd1158   2.104       .  S
O1152      C1170   1.279       .  A
O1152     Cd1161   2.097       .  S
O1153      C1167   1.279       .  A
O1153     Cd1157   2.069       .  S
O1154      C1165   1.277       .  A
O1154     Cd1157   2.096       .  S
Zn1155     O1166   2.012       .  S
Zn1155     O1168   1.974       .  S
Zn1155     O1160   1.886       .  S
O1156      C1167   1.276       .  A
O1156     Cd1161   2.059       .  S
Cd1157     O1159   2.045       .  S
Cd1157     O1160   1.963       .  S
Cd1158     O1162   2.098       .  S
Cd1158     O1171   2.066       .  S
Cd1158     O1160   1.974       .  S
O1159      C1169   1.275       .  A
O1160     Cd1161   1.980       .  S
Cd1161     O1163   2.070       .  S
O1162      C1169   1.282       .  A
C1164      O1168   1.272       .  A
C1164      C1424   1.484       .  S
C1165      C1414   1.493       .  S
C1167      C2317   1.481       .  S
C1169      C2124   1.485       .  S
C1170      O1171   1.275       .  A
C1170      C2057   1.484       .  S
O1172      C1188   1.275       .  A
O1172     Zn1178   1.998       .  S
C1173      O1189   1.273       .  A
C1173      O1186   1.276       .  A
C1173      C1397   1.490       .  S
O1174      C1187   1.282       .  A
O1174     Cd1181   2.097       .  S
O1175      C1193   1.274       .  A
O1175     Cd1184   2.044       .  S
O1176      C1190   1.276       .  A
O1176     Cd1180   2.064       .  S
O1177      C1188   1.277       .  A
O1177     Cd1180   2.065       .  S
Zn1178     O1189   2.011       .  S
Zn1178     O1191   1.983       .  S
Zn1178     O1183   1.892       .  S
O1179      C1190   1.279       .  A
O1179     Cd1184   2.069       .  S
Cd1180     O1182   2.094       .  S
Cd1180     O1183   1.977       .  S
Cd1181     O1185   2.066       .  S
Cd1181     O1194   2.098       .  S
Cd1181     O1183   1.969       .  S
O1182      C1192   1.279       .  A
O1183     Cd1184   1.959       .  S
Cd1184     O1186   2.086       .  S
O1185      C1192   1.275       .  A
C1187      O1191   1.272       .  A
C1187      C1404   1.485       .  S
C1188      C1807   1.473       .  S
C1190      C2297   1.482       .  S
C1192      C2097   1.488       .  S
C1193      O1194   1.283       .  A
C1193      C2024   1.483       .  S
O1195      C1211   1.272       .  A
O1195     Zn1201   2.002   1_565  S
C1196      O1212   1.276       .  A
C1196      O1209   1.277       .  A
C1196      C1577   1.473       .  S
O1197      C1210   1.282       .  A
O1197     Cd1204   2.104       .  S
O1198      C1216   1.279       .  A
O1198     Cd1207   2.097       .  S
O1199      C1213   1.279       .  A
O1199     Cd1203   2.076       .  S
O1200      C1211   1.278       .  A
O1200     Cd1203   2.100       .  S
Zn1201     O1212   2.010       .  S
Zn1201     O1214   1.976       .  S
Zn1201     O1206   1.885       .  S
O1202      C1213   1.277   1_545  A
O1202     Cd1207   2.069       .  S
Cd1203     O1205   2.050       .  S
Cd1203     O1206   1.964   1_565  S
Cd1204     O1208   2.094   1_545  S
Cd1204     O1217   2.071       .  S
Cd1204     O1206   1.976       .  S
O1205      C1215   1.275       .  A
O1206     Cd1207   1.979       .  S
Cd1207     O1209   2.077       .  S
O1208      C1215   1.282       .  A
C1210      O1214   1.273       .  A
C1210      C1777   1.485       .  S
C1211      C1857   1.491       .  S
C1213      C2647   1.476       .  S
C1215      C1384   1.479       .  S
C1216      O1217   1.276       .  A
C1216      C1374   1.488       .  S
C1218      C1219   1.544       .  S
C1218      C1224   1.531       .  S
C1218      C1222   1.539       .  S
C1218      C1657   1.523       .  S
C1219      H1226   1.085       .  S
C1219      C1220   1.368       .  D
C1220      C1221   1.541       .  S
C1220      C1364   1.482       .  S
C1221      C1225   1.538       .  S
C1221      C1223   1.542       .  S
C1221      H1227   1.111       .  S
C1222      H1228   1.084       .  S
C1222      C1223   1.361       .  D
C1223      C1394   1.475       .  S
C1224      H1229   1.087       .  S
C1224      C1225   1.359       .  D
C1225      C2977   1.479       .  S
C1230      C1231   1.543       .  S
C1230      C1236   1.530       .  S
C1230      C1234   1.538       .  S
C1230      C1997   1.527       .  S
C1231      H1238   1.086       .  S
C1231      C1232   1.372       .  D
C1232      C1233   1.544       .  S
C1232      C1354   1.488       .  S
C1233      C1237   1.536       .  S
C1233      C1235   1.543       .  S
C1233      H1239   1.110       .  S
C1234      H1240   1.081       .  S
C1234      C1235   1.363       .  D
C1235      C2717   1.481       .  S
C1236      H1241   1.087       .  S
C1236      C1237   1.357       .  D
C1237      C1387   1.476       .  S
C1242      C1243   1.537       .  S
C1242      C1248   1.526       .  S
C1242      C1246   1.544       .  S
C1242      C2497   1.529       .  S
C1243      H1250   1.083       .  S
C1243      C1244   1.372       .  D
C1244      C1245   1.557       .  S
C1244      C1377   1.510       .  S
C1245      C1249   1.540       .  S
C1245      C1247   1.549       .  S
C1245      H1251   1.107       .  S
C1246      H1252   1.084       .  S
C1246      C1247   1.369       .  D
C1247      C1344   1.495       .  S
C1248      H1253   1.087       .  S
C1248      C1249   1.358       .  D
C1249      C1407   1.484       .  S
C1254      C1255   1.548       .  S
C1254      C1260   1.527       .  S
C1254      C1258   1.534       .  S
C1254      C3177   1.526       .  S
C1255      H1262   1.084       .  S
C1255      C1256   1.367       .  D
C1256      C1257   1.539       .  S
C1256      C1334   1.481       .  S
C1257      C1261   1.544       .  S
C1257      C1259   1.554       .  S
C1257      H1263   1.110       .  S
C1258      H1264   1.084       .  S
C1258      C1259   1.369       .  D
C1259      C1964   1.498       .  S
C1260      H1265   1.086       .  S
C1260      C1261   1.359       .  D
C1261      C1427   1.488       .  S
C1266      C1267   1.544       .  S
C1266      C1272   1.528       .  S
C1266      C1270   1.546       .  S
C1266      C2757   1.534       .  S
C1267      H1274   1.082       .  S
C1267      C1268   1.363       .  D
C1268      C1269   1.544       .  S
C1268      C1417   1.486       .  S
C1269      C1273   1.540       .  S
C1269      C1271   1.548       .  S
C1269      H1275   1.107       .  S
C1270      H1276   1.085       .  S
C1270      C1271   1.377       .  D
C1271      C1327   1.502       .  S
C1272      H1277   1.087       .  S
C1272      C1273   1.357       .  D
C1273      C2744   1.481       .  S
C1278      C1279   1.537       .  S
C1278      C1284   1.530       .  S
C1278      C1282   1.544       .  S
C1278      C2997   1.525       .  S
C1279      H1286   1.083       .  S
C1279      C1280   1.360       .  D
C1280      C1281   1.540       .  S
C1280      C2954   1.480       .  S
C1281      C1285   1.537       .  S
C1281      C1283   1.545       .  S
C1281      H1287   1.109       .  S
C1282      H1288   1.085       .  S
C1282      C1283   1.374       .  D
C1283      C1314   1.493       .  S
C1284      H1289   1.087       .  S
C1284      C1285   1.359       .  D
C1285      C1987   1.477       .  S
O1290      C1306   1.277       .  A
O1290     Zn1296   2.046       .  S
C1291      O1307   1.276       .  A
C1291      O1304   1.276       .  A
C1291      C1337   1.491       .  S
O1292      C1305   1.278   1_545  A
O1292     Cd1299   2.095       .  S
O1293      C1311   1.275       .  A
O1293     Cd1302   2.064       .  S
O1294      C1308   1.276       .  A
O1294     Cd1298   2.081       .  S
O1295      C1306   1.274       .  A
O1295     Cd1298   2.062   1_565  S
Zn1296     O1307   2.030       .  S
Zn1296     O1309   2.021       .  S
Zn1296     O1301   1.952   1_565  S
O1297      C1308   1.277       .  A
O1297     Cd1302   2.082       .  S
Cd1298     O1300   2.062       .  S
Cd1298     O1301   1.998       .  S
Cd1299     O1303   2.094       .  S
Cd1299     O1312   2.090       .  S
Cd1299     O1301   2.022       .  S
O1300      C1310   1.274       .  A
O1301     Cd1302   2.004       .  S
Cd1302     O1304   2.082   1_545  S
O1303      C1310   1.277       .  A
C1305      O1309   1.276       .  A
C1305      C1324   1.490       .  S
C1306      C1357   1.482       .  S
C1308      C1367   1.487       .  S
C1310      C1347   1.484       .  S
C1311      O1312   1.277       .  A
C1311      C1317   1.478       .  S
C1313      C1314   1.408       .  A
C1313      C1318   1.403       .  A
C1313      H1320   1.083       .  S
C1314      C1315   1.410       .  A
C1315      C1316   1.396       .  A
C1315      F1322   1.357       .  S
C1316      C1317   1.402       .  A
C1316      H1321   1.084       .  S
C1317      C1318   1.405       .  A
C1318      F1319   1.357       .  S
C1323      C1324   1.405       .  A
C1323      C1328   1.398       .  A
C1323      H1330   1.083       .  S
C1324      C1325   1.408       .  A
C1325      C1326   1.405       .  A
C1325      F1332   1.357   1_565  S
C1326      C1327   1.410       .  A
C1326      H1331   1.082       .  S
C1327      C1328   1.410       .  A
C1328      F1329   1.353       .  S
C1333      C1334   1.402       .  A
C1333      C1338   1.404       .  A
C1333      H1340   1.083       .  S
C1334      C1335   1.403       .  A
C1335      C1336   1.398       .  A
C1335      F1342   1.357       .  S
C1336      C1337   1.408       .  A
C1336      H1341   1.083       .  S
C1337      C1338   1.413       .  A
C1338      F1339   1.357       .  S
C1343      C1344   1.409       .  A
C1343      C1348   1.404       .  A
C1343      H1350   1.083       .  S
C1344      C1345   1.404       .  A
C1345      C1346   1.396       .  A
C1345      F1352   1.351       .  S
C1346      C1347   1.404       .  A
C1346      H1351   1.084       .  S
C1347      C1348   1.407       .  A
C1348      F1349   1.357       .  S
C1353      C1354   1.407       .  A
C1353      C1358   1.404       .  A
C1353      H1360   1.083       .  S
C1354      C1355   1.407       .  A
C1355      C1356   1.397       .  A
C1355      F1362   1.357       .  S
C1356      C1357   1.405       .  A
C1356      H1361   1.084       .  S
C1357      C1358   1.407       .  A
C1358      F1359   1.357       .  S
C1363      C1364   1.403       .  A
C1363      C1368   1.403       .  A
C1363      H1370   1.083       .  S
C1364      C1365   1.405       .  A
C1365      C1366   1.398       .  A
C1365      F1372   1.357       .  S
C1366      C1367   1.406       .  A
C1366      H1371   1.083       .  S
C1367      C1368   1.411       .  A
C1368      F1369   1.357       .  S
C1373      C1374   1.403       .  A
C1373      C1378   1.404       .  A
C1373      H1380   1.083       .  S
C1374      C1375   1.407       .  A
C1375      C1376   1.398       .  A
C1375      F1382   1.358       .  S
C1376      C1377   1.406       .  A
C1376      H1381   1.073       .  S
C1377      C1378   1.419       .  A
C1378      F1379   1.356       .  S
C1383      C1384   1.402       .  A
C1383      C1388   1.396       .  A
C1383      H1390   1.083       .  S
C1384      C1385   1.413       .  A
C1385      C1386   1.399       .  A
C1385      F1392   1.358       .  S
C1386      C1387   1.398       .  A
C1386      H1391   1.084       .  S
C1387      C1388   1.408       .  A
C1388      F1389   1.358       .  S
C1393      C1394   1.401       .  A
C1393      C1398   1.402       .  A
C1393      H1400   1.083       .  S
C1394      C1395   1.401       .  A
C1395      C1396   1.399       .  A
C1395      F1402   1.358       .  S
C1396      C1397   1.410       .  A
C1396      H1401   1.083       .  S
C1397      C1398   1.412       .  A
C1398      F1399   1.357       .  S
C1403      C1404   1.403       .  A
C1403      C1408   1.396       .  A
C1403      H1410   1.083       .  S
C1404      C1405   1.415       .  A
C1405      C1406   1.398       .  A
C1405      F1412   1.358       .  S
C1406      C1407   1.399       .  A
C1406      H1411   1.083       .  S
C1407      C1408   1.410       .  A
C1408      F1409   1.357       .  S
C1413      C1414   1.407       .  A
C1413      C1418   1.404       .  A
C1413      H1420   1.083       .  S
C1414      C1415   1.414       .  A
C1415      C1416   1.400       .  A
C1415      F1422   1.358       .  S
C1416      C1417   1.399       .  A
C1416      H1421   1.080       .  S
C1417      C1418   1.407       .  A
C1418      F1419   1.357       .  S
C1423      C1424   1.402       .  A
C1423      C1428   1.397       .  A
C1423      H1430   1.083       .  S
C1424      C1425   1.414       .  A
C1425      C1426   1.396       .  A
C1425      F1432   1.358       .  S
C1426      C1427   1.398       .  A
C1426      H1431   1.080       .  S
C1427      C1428   1.413       .  A
C1428      F1429   1.357       .  S
C1433      C1434   1.405       .  A
C1433      C1438   1.399       .  A
C1433      H1440   1.083       .  S
C1434      C1435   1.408       .  A
C1435      C1436   1.401       .  A
C1435      F1442   1.357       .  S
C1436      C1437   1.406       .  A
C1436      H1441   1.083       .  S
C1437      C1438   1.407       .  A
C1438      F1439   1.357       .  S
C1443      C1444   1.403       .  A
C1443      C1448   1.402       .  A
C1443      H1450   1.083       .  S
C1444      C1445   1.406       .  A
C1445      C1446   1.397       .  A
C1445      F1452   1.358       .  S
C1446      C1447   1.406       .  A
C1446      H1451   1.082       .  S
C1447      C1448   1.413       .  A
C1448      F1449   1.357       .  S
C1453      C1454   1.410       .  A
C1453      C1458   1.406       .  A
C1453      H1460   1.082       .  S
C1454      C1455   1.412       .  A
C1455      C1456   1.398       .  A
C1455      F1462   1.356       .  S
C1456      C1457   1.403       .  A
C1456      H1461   1.084       .  S
C1457      C1458   1.407       .  A
C1458      F1459   1.357       .  S
C1463      C1464   1.403       .  A
C1463      C1468   1.404       .  A
C1463      H1470   1.083       .  S
C1464      C1465   1.404       .  A
C1465      C1466   1.398       .  A
C1465      F1472   1.357       .  S
C1466      C1467   1.408       .  A
C1466      H1471   1.083       .  S
C1467      C1468   1.411       .  A
C1468      F1469   1.357       .  S
C1473      C1474   1.400       .  A
C1473      C1478   1.401       .  A
C1473      H1480   1.083       .  S
C1474      C1475   1.402       .  A
C1475      C1476   1.396       .  A
C1475      F1482   1.357       .  S
C1476      C1477   1.407       .  A
C1476      H1481   1.083       .  S
C1477      C1478   1.414       .  A
C1478      F1479   1.357       .  S
C1483      C1484   1.402       .  A
C1483      C1488   1.395       .  A
C1483      H1490   1.084       .  S
C1484      C1485   1.405       .  A
C1485      C1486   1.404       .  A
C1485      F1492   1.357       .  S
C1486      C1487   1.411       .  A
C1486      H1491   1.082       .  S
C1487      C1488   1.410       .  A
C1488      F1489   1.356       .  S
C1493      C1494   1.403       .  A
C1493      C1498   1.401       .  A
C1493      H1500   1.083       .  S
C1494      C1495   1.409       .  A
C1495      C1496   1.399       .  A
C1495      F1502   1.358       .  S
C1496      C1497   1.402       .  A
C1496      H1501   1.076       .  S
C1497      C1498   1.412       .  A
C1498      F1499   1.357       .  S
C1503      C1504   1.409       .  A
C1503      C1508   1.397       .  A
C1503      H1510   1.083       .  S
C1504      C1505   1.404       .  A
C1505      C1506   1.398       .  A
C1505      F1512   1.357       .  S
C1506      C1507   1.407       .  A
C1506      H1511   1.083       .  S
C1507      C1508   1.400       .  A
C1508      F1509   1.357       .  S
C1513      C1514   1.406       .  A
C1513      C1518   1.400       .  A
C1513      H1520   1.083       .  S
C1514      C1515   1.405       .  A
C1515      C1516   1.403       .  A
C1515      F1522   1.357       .  S
C1516      C1517   1.411       .  A
C1516      H1521   1.082       .  S
C1517      C1518   1.409       .  A
C1518      F1519   1.356       .  S
C1523      C1524   1.405       .  A
C1523      C1528   1.395       .  A
C1523      H1530   1.083       .  S
C1524      C1525   1.402       .  A
C1525      C1526   1.398       .  A
C1525      F1532   1.357       .  S
C1526      C1527   1.408       .  A
C1526      H1531   1.083       .  S
C1527      C1528   1.404       .  A
C1528      F1529   1.357       .  S
C1533      C1534   1.405       .  A
C1533      C1538   1.401       .  A
C1533      H1540   1.083       .  S
C1534      C1535   1.401       .  A
C1535      C1536   1.399       .  A
C1535      F1542   1.357       .  S
C1536      C1537   1.409       .  A
C1536      H1541   1.083       .  S
C1537      C1538   1.408       .  A
C1538      F1539   1.357       .  S
C1543      C1544   1.399       .  A
C1543      C1548   1.397       .  A
C1543      H1550   1.076       .  S
C1544      C1545   1.412       .  A
C1545      C1546   1.398       .  A
C1545      F1552   1.358       .  S
C1546      C1547   1.403       .  A
C1546      H1551   1.083       .  S
C1547      C1548   1.413       .  A
C1548      F1549   1.358       .  S
C1553      C1554   1.406       .  A
C1553      C1558   1.402       .  A
C1553      H1560   1.083       .  S
C1554      C1555   1.405       .  A
C1555      C1556   1.400       .  A
C1555      F1562   1.357       .  S
C1556      C1557   1.407       .  A
C1556      H1561   1.083       .  S
C1557      C1558   1.406       .  A
C1558      F1559   1.357       .  S
C1563      C1564   1.408       .  A
C1563      C1568   1.400       .  A
C1563      H1570   1.083       .  S
C1564      C1565   1.407       .  A
C1565      C1566   1.401       .  A
C1565      F1572   1.357       .  S
C1566      C1567   1.407       .  A
C1566      H1571   1.083       .  S
C1567      C1568   1.407       .  A
C1568      F1569   1.357       .  S
C1573      C1574   1.410       .  A
C1573      C1578   1.398       .  A
C1573      H1580   1.078       .  S
C1574      C1575   1.416       .  A
C1575      C1576   1.396       .  A
C1575      F1582   1.358       .  S
C1576      C1577   1.398       .  A
C1576      H1581   1.084       .  S
C1577      C1578   1.404       .  A
C1578      F1579   1.358       .  S
C1583      C1584   1.407       .  A
C1583      C1588   1.397       .  A
C1583      H1590   1.083       .  S
C1584      C1585   1.407       .  A
C1585      C1586   1.404       .  A
C1585      F1592   1.357   1_455  S
C1586      C1587   1.411       .  A
C1586      H1591   1.082       .  S
C1587      C1588   1.407       .  A
C1588      F1589   1.355       .  S
C1593      C1594   1.405       .  A
C1593      C1598   1.396       .  A
C1593      H1600   1.082       .  S
C1594      C1595   1.414       .  A
C1595      C1596   1.405       .  A
C1595      F1602   1.357       .  S
C1596      C1597   1.404       .  A
C1596      H1601   1.083       .  S
C1597      C1598   1.406       .  A
C1598      F1599   1.358       .  S
C1603      C1604   1.407       .  A
C1603      C1608   1.406       .  A
C1603      H1610   1.083       .  S
C1604      C1605   1.405       .  A
C1605      C1606   1.395       .  A
C1605      F1612   1.357       .  S
C1606      C1607   1.405       .  A
C1606      H1611   1.083       .  S
C1607      C1608   1.409       .  A
C1608      F1609   1.357       .  S
C1613      C1614   1.404       .  A
C1613      C1618   1.403       .  A
C1613      H1620   1.083       .  S
C1614      C1615   1.406       .  A
C1615      C1616   1.396       .  A
C1615      F1622   1.357       .  S
C1616      C1617   1.405       .  A
C1616      H1621   1.083       .  S
C1617      C1618   1.409       .  A
C1618      F1619   1.357       .  S
C1623      C1624   1.397       .  A
C1623      C1628   1.396       .  A
C1623      H1630   1.080       .  S
C1624      C1625   1.409       .  A
C1625      C1626   1.397       .  A
C1625      F1632   1.358       .  S
C1626      C1627   1.404       .  A
C1626      H1631   1.083       .  S
C1627      C1628   1.414       .  A
C1628      F1629   1.358       .  S
C1633      C1634   1.403       .  A
C1633      C1638   1.403       .  A
C1633      H1640   1.083       .  S
C1634      C1635   1.403       .  A
C1635      C1636   1.396       .  A
C1635      F1642   1.357       .  S
C1636      C1637   1.406       .  A
C1636      H1641   1.083       .  S
C1637      C1638   1.411       .  A
C1638      F1639   1.357       .  S
C1643      C1644   1.411       .  A
C1643      C1648   1.396       .  A
C1643      H1650   1.080       .  S
C1644      C1645   1.417       .  A
C1645      C1646   1.396       .  A
C1645      F1652   1.356       .  S
C1646      C1647   1.399       .  A
C1646      H1651   1.084       .  S
C1647      C1648   1.403       .  A
C1648      F1649   1.358       .  S
C1653      C1654   1.402       .  A
C1653      C1658   1.394       .  A
C1653      H1660   1.083       .  S
C1654      C1655   1.405       .  A
C1655      C1656   1.395       .  A
C1655      F1662   1.358       .  S
C1656      C1657   1.411       .  A
C1656      H1661   1.079       .  S
C1657      C1658   1.413       .  A
C1658      F1659   1.357       .  S
C1663      C1664   1.403       .  A
C1663      C1668   1.400       .  A
C1663      H1670   1.083       .  S
C1664      C1665   1.408       .  A
C1665      C1666   1.398       .  A
C1665      F1672   1.358       .  S
C1666      C1667   1.404       .  A
C1666      H1671   1.079       .  S
C1667      C1668   1.414       .  A
C1668      F1669   1.357       .  S
C1673      C1674   1.409       .  A
C1673      C1678   1.395       .  A
C1673      H1680   1.083       .  S
C1674      C1675   1.406       .  A
C1675      C1676   1.398       .  A
C1675      F1682   1.357       .  S
C1676      C1677   1.405       .  A
C1676      H1681   1.084       .  S
C1677      C1678   1.399       .  A
C1678      F1679   1.358       .  S
C1683      C1684   1.402       .  A
C1683      C1688   1.396       .  A
C1683      H1690   1.083       .  S
C1684      C1685   1.406       .  A
C1685      C1686   1.399       .  A
C1685      F1692   1.358       .  S
C1686      C1687   1.412       .  A
C1686      H1691   1.080       .  S
C1687      C1688   1.414       .  A
C1688      F1689   1.356       .  S
C1693      C1694   1.407       .  A
C1693      C1698   1.400       .  A
C1693      H1700   1.083       .  S
C1694      C1695   1.406       .  A
C1695      C1696   1.403       .  A
C1695      F1702   1.357       .  S
C1696      C1697   1.408       .  A
C1696      H1701   1.083       .  S
C1697      C1698   1.405       .  A
C1698      F1699   1.357       .  S
C1703      C1704   1.402       .  A
C1703      C1708   1.403       .  A
C1703      H1710   1.083       .  S
C1704      C1705   1.398       .  A
C1705      C1706   1.391       .  A
C1705      F1712   1.358       .  S
C1706      C1707   1.408       .  A
C1706      H1711   1.083       .  S
C1707      C1708   1.409       .  A
C1708      F1709   1.357       .  S
C1713      C1714   1.405       .  A
C1713      C1718   1.397       .  A
C1713      H1720   1.083       .  S
C1714      C1715   1.402       .  A
C1715      C1716   1.400       .  A
C1715      F1722   1.357       .  S
C1716      C1717   1.409       .  A
C1716      H1721   1.083       .  S
C1717      C1718   1.406       .  A
C1718      F1719   1.357       .  S
C1723      C1724   1.401       .  A
C1723      C1728   1.399       .  A
C1723      H1730   1.083       .  S
C1724      C1725   1.410       .  A
C1725      C1726   1.400       .  A
C1725      F1732   1.358       .  S
C1726      C1727   1.404       .  A
C1726      H1731   1.083       .  S
C1727      C1728   1.413       .  A
C1728      F1729   1.357       .  S
C1733      C1734   1.412       .  A
C1733      C1738   1.399       .  A
C1733      H1740   1.083       .  S
C1734      C1735   1.407       .  A
C1735      C1736   1.398       .  A
C1735      F1742   1.357       .  S
C1736      C1737   1.408       .  A
C1736      H1741   1.083       .  S
C1737      C1738   1.402       .  A
C1738      F1739   1.357       .  S
C1743      C1744   1.411       .  A
C1743      C1748   1.396       .  A
C1743      H1750   1.083       .  S
C1744      C1745   1.407       .  A
C1745      C1746   1.400       .  A
C1745      F1752   1.357       .  S
C1746      C1747   1.405       .  A
C1746      H1751   1.084       .  S
C1747      C1748   1.398       .  A
C1748      F1749   1.358       .  S
C1753      C1754   1.408       .  A
C1753      C1758   1.399       .  A
C1753      H1760   1.083       .  S
C1754      C1755   1.405       .  A
C1755      C1756   1.398       .  A
C1755      F1762   1.357       .  S
C1756      C1757   1.406       .  A
C1756      H1761   1.083       .  S
C1757      C1758   1.402       .  A
C1758      F1759   1.357       .  S
C1763      C1764   1.407       .  A
C1763      C1768   1.399       .  A
C1763      H1770   1.083       .  S
C1764      C1765   1.406       .  A
C1765      C1766   1.401       .  A
C1765      F1772   1.357       .  S
C1766      C1767   1.411       .  A
C1766      H1771   1.082       .  S
C1767      C1768   1.409       .  A
C1768      F1769   1.356       .  S
C1773      C1774   1.395       .  A
C1773      C1778   1.394       .  A
C1773      H1780   1.074       .  S
C1774      C1775   1.410       .  A
C1775      C1776   1.400       .  A
C1775      F1782   1.358       .  S
C1776      C1777   1.404       .  A
C1776      H1781   1.083       .  S
C1777      C1778   1.414       .  A
C1778      F1779   1.358       .  S
C1783      C1784   1.405       .  A
C1783      C1788   1.395       .  A
C1783      H1790   1.083       .  S
C1784      C1785   1.404       .  A
C1785      C1786   1.402       .  A
C1785      F1792   1.357       .  S
C1786      C1787   1.415       .  A
C1786      H1791   1.081       .  S
C1787      C1788   1.407       .  A
C1788      F1789   1.350       .  S
C1793      C1794   1.407       .  A
C1793      C1798   1.403       .  A
C1793      H1800   1.083       .  S
C1794      C1795   1.407       .  A
C1795      C1796   1.397       .  A
C1795      F1802   1.358       .  S
C1796      C1797   1.403       .  A
C1796      H1801   1.083       .  S
C1797      C1798   1.407       .  A
C1798      F1799   1.357       .  S
C1803      C1804   1.409       .  A
C1803      C1808   1.394       .  A
C1803      H1810   1.082       .  S
C1804      C1805   1.418       .  A
C1805      C1806   1.394       .  A
C1805      F1812   1.355       .  S
C1806      C1807   1.399       .  A
C1806      H1811   1.084       .  S
C1807      C1808   1.405       .  A
C1808      F1809   1.358       .  S
C1813      C1814   1.405       .  A
C1813      C1818   1.394       .  A
C1813      H1820   1.083       .  S
C1814      C1815   1.408       .  A
C1815      C1816   1.404       .  A
C1815      F1822   1.357       .  S
C1816      C1817   1.406       .  A
C1816      H1821   1.083       .  S
C1817      C1818   1.405       .  A
C1818      F1819   1.357       .  S
C1823      C1824   1.412       .  A
C1823      C1828   1.401       .  A
C1823      H1830   1.077       .  S
C1824      C1825   1.413       .  A
C1825      C1826   1.394       .  A
C1825      F1832   1.358       .  S
C1826      C1827   1.401       .  A
C1826      H1831   1.083       .  S
C1827      C1828   1.405       .  A
C1828      F1829   1.357       .  S
C1833      C1834   1.403       .  A
C1833      C1838   1.399       .  A
C1833      H1840   1.083       .  S
C1834      C1835   1.410       .  A
C1835      C1836   1.402       .  A
C1835      F1842   1.357       .  S
C1836      C1837   1.405       .  A
C1836      H1841   1.083       .  S
C1837      C1838   1.410       .  A
C1838      F1839   1.358       .  S
C1843      C1844   1.402       .  A
C1843      C1848   1.391       .  A
C1843      H1850   1.083       .  S
C1844      C1845   1.410       .  A
C1845      C1846   1.402       .  A
C1845      F1852   1.358       .  S
C1846      C1847   1.410       .  A
C1846      H1851   1.078       .  S
C1847      C1848   1.412       .  A
C1848      F1849   1.358       .  S
C1853      C1854   1.398       .  A
C1853      C1858   1.398       .  A
C1853      H1860   1.082       .  S
C1854      C1855   1.406       .  A
C1855      C1856   1.404       .  A
C1855      F1862   1.357       .  S
C1856      C1857   1.407       .  A
C1856      H1861   1.083       .  S
C1857      C1858   1.415       .  A
C1858      F1859   1.358       .  S
C1863      C1864   1.412       .  A
C1863      C1868   1.402       .  A
C1863      H1870   1.082       .  S
C1864      C1865   1.409       .  A
C1865      C1866   1.398       .  A
C1865      F1872   1.354       .  S
C1866      C1867   1.406       .  A
C1866      H1871   1.083       .  S
C1867      C1868   1.407       .  A
C1868      F1869   1.357   1_556  S
C1873      C1874   1.402       .  A
C1873      C1878   1.396       .  A
C1873      H1880   1.083       .  S
C1874      C1875   1.406       .  A
C1875      C1876   1.405       .  A
C1875      F1882   1.357       .  S
C1876      C1877   1.408       .  A
C1876      H1881   1.083       .  S
C1877      C1878   1.409       .  A
C1878      F1879   1.358       .  S
C1883      C1884   1.413       .  A
C1883      C1888   1.400       .  A
C1883      H1890   1.079       .  S
C1884      C1885   1.414       .  A
C1885      C1886   1.395       .  A
C1885      F1892   1.357       .  S
C1886      C1887   1.402       .  A
C1886      H1891   1.083       .  S
C1887      C1888   1.406       .  A
C1888      F1889   1.358       .  S
C1893      C1894   1.399       .  A
C1893      C1898   1.395       .  A
C1893      H1900   1.084       .  S
C1894      C1895   1.405       .  A
C1895      C1896   1.396       .  A
C1895      F1902   1.358       .  S
C1896      C1897   1.410       .  A
C1896      H1901   1.080       .  S
C1897      C1898   1.417       .  A
C1898      F1899   1.356       .  S
C1903      C1904   1.405       .  A
C1903      C1908   1.402       .  A
C1903      H1910   1.083       .  S
C1904      C1905   1.409       .  A
C1905      C1906   1.400       .  A
C1905      F1912   1.358       .  S
C1906      C1907   1.405       .  A
C1906      H1911   1.077       .  S
C1907      C1908   1.413       .  A
C1908      F1909   1.357       .  S
C1913      C1914   1.397       .  A
C1913      C1918   1.397       .  A
C1913      H1920   1.081       .  S
C1914      C1915   1.405       .  A
C1915      C1916   1.402       .  A
C1915      F1922   1.357       .  S
C1916      C1917   1.408       .  A
C1916      H1921   1.083       .  S
C1917      C1918   1.413       .  A
C1918      F1919   1.357       .  S
C1923      C1924   1.395       .  A
C1923      C1928   1.393       .  A
C1923      H1930   1.082       .  S
C1924      C1925   1.405       .  A
C1925      C1926   1.400       .  A
C1925      F1932   1.357       .  S
C1926      C1927   1.405       .  A
C1926      H1931   1.083       .  S
C1927      C1928   1.415       .  A
C1928      F1929   1.358       .  S
C1933      C1934   1.412       .  A
C1933      C1938   1.398       .  A
C1933      H1940   1.083       .  S
C1934      C1935   1.406       .  A
C1935      C1936   1.397       .  A
C1935      F1942   1.357       .  S
C1936      C1937   1.406       .  A
C1936      H1941   1.083       .  S
C1937      C1938   1.400       .  A
C1938      F1939   1.358       .  S
C1943      C1944   1.404       .  A
C1943      C1948   1.395       .  A
C1943      H1950   1.083       .  S
C1944      C1945   1.405       .  A
C1945      C1946   1.395       .  A
C1945      F1952   1.358       .  S
C1946      C1947   1.412       .  A
C1946      H1951   1.077       .  S
C1947      C1948   1.411       .  A
C1948      F1949   1.357       .  S
C1953      C1954   1.408       .  A
C1953      C1958   1.402       .  A
C1953      H1960   1.083       .  S
C1954      C1955   1.406       .  A
C1955      C1956   1.400       .  A
C1955      F1962   1.357       .  S
C1956      C1957   1.406       .  A
C1956      H1961   1.083       .  S
C1957      C1958   1.406       .  A
C1958      F1959   1.357       .  S
C1963      C1964   1.404       .  A
C1963      C1968   1.402       .  A
C1963      H1970   1.080       .  S
C1964      C1965   1.414       .  A
C1965      C1966   1.401       .  A
C1965      F1972   1.357       .  S
C1966      C1967   1.402       .  A
C1966      H1971   1.083       .  S
C1967      C1968   1.410       .  A
C1968      F1969   1.358       .  S
C1973      C1974   1.396       .  A
C1973      C1978   1.395       .  A
C1973      H1980   1.078       .  S
C1974      C1975   1.410       .  A
C1975      C1976   1.397       .  A
C1975      F1982   1.358       .  S
C1976      C1977   1.403       .  A
C1976      H1981   1.083       .  S
C1977      C1978   1.414       .  A
C1978      F1979   1.358       .  S
C1983      C1984   1.400       .  A
C1983      C1988   1.395       .  A
C1983      H1990   1.083       .  S
C1984      C1985   1.411       .  A
C1985      C1986   1.398       .  A
C1985      F1992   1.358       .  S
C1986      C1987   1.399       .  A
C1986      H1991   1.083       .  S
C1987      C1988   1.410       .  A
C1988      F1989   1.358       .  S
C1993      C1994   1.403       .  A
C1993      C1998   1.394       .  A
C1993      H2000   1.083       .  S
C1994      C1995   1.402       .  A
C1995      C1996   1.398       .  A
C1995      F2002   1.357       .  S
C1996      C1997   1.413       .  A
C1996      H2001   1.076       .  S
C1997      C1998   1.411       .  A
C1998      F1999   1.358       .  S
C2003      C2004   1.404       .  A
C2003      C2008   1.398       .  A
C2003      H2010   1.083       .  S
C2004      C2005   1.406       .  A
C2005      C2006   1.401       .  A
C2005      F2012   1.358       .  S
C2006      C2007   1.410       .  A
C2006      H2011   1.082       .  S
C2007      C2008   1.410       .  A
C2008      F2009   1.354       .  S
C2013      C2014   1.404       .  A
C2013      C2018   1.397       .  A
C2013      H2020   1.083       .  S
C2014      C2015   1.414       .  A
C2015      C2016   1.398       .  A
C2015      F2022   1.358       .  S
C2016      C2017   1.398       .  A
C2016      H2021   1.084       .  S
C2017      C2018   1.405       .  A
C2018      F2019   1.357       .  S
C2023      C2024   1.403       .  A
C2023      C2028   1.396       .  A
C2023      H2030   1.083       .  S
C2024      C2025   1.415       .  A
C2025      C2026   1.399       .  A
C2025      F2032   1.358       .  S
C2026      C2027   1.397       .  A
C2026      H2031   1.084       .  S
C2027      C2028   1.405       .  A
C2028      F2029   1.358       .  S
C2033      C2034   1.404       .  A
C2033      C2038   1.398       .  A
C2033      H2040   1.083       .  S
C2034      C2035   1.407       .  A
C2035      C2036   1.397       .  A
C2035      F2042   1.357       .  S
C2036      C2037   1.403       .  A
C2036      H2041   1.084       .  S
C2037      C2038   1.405       .  A
C2038      F2039   1.357       .  S
C2043      C2044   1.404       .  A
C2043      C2048   1.397       .  A
C2043      H2050   1.083       .  S
C2044      C2045   1.408       .  A
C2045      C2046   1.404       .  A
C2045      F2052   1.357       .  S
C2046      C2047   1.406       .  A
C2046      H2051   1.083       .  S
C2047      C2048   1.407       .  A
C2048      F2049   1.358       .  S
C2053      C2054   1.405       .  A
C2053      C2058   1.399       .  A
C2053      H2060   1.082       .  S
C2054      C2055   1.415       .  A
C2055      C2056   1.402       .  A
C2055      F2062   1.356       .  S
C2056      C2057   1.402       .  A
C2056      H2061   1.083       .  S
C2057      C2058   1.409       .  A
C2058      F2059   1.358       .  S
C2063      C2064   1.401       .  A
C2063      C2068   1.397       .  A
C2063      H2070   1.084       .  S
C2064      C2065   1.402       .  A
C2065      C2066   1.400       .  A
C2065      F2072   1.357       .  S
C2066      C2067   1.407       .  A
C2066      H2071   1.083       .  S
C2067      C2068   1.411       .  A
C2068      F2069   1.358       .  S
C2073      C2074   1.409       .  A
C2073      C2078   1.400       .  A
C2073      H2080   1.083       .  S
C2074      C2075   1.405       .  A
C2075      C2076   1.397       .  A
C2075      F2082   1.357       .  S
C2076      C2077   1.407       .  A
C2076      H2081   1.083       .  S
C2077      C2078   1.406       .  A
C2078      F2079   1.357       .  S
C2083      C2084   1.409       .  A
C2083      C2088   1.396       .  A
C2083      H2090   1.077       .  S
C2084      C2085   1.412       .  A
C2085      C2086   1.390       .  A
C2085      F2092   1.358       .  S
C2086      C2087   1.402       .  A
C2086      H2091   1.083       .  S
C2087      C2088   1.406       .  A
C2088      F2089   1.357       .  S
C2093      C2094   1.413       .  A
C2093      C2098   1.403       .  A
C2093      H2100   1.081       .  S
C2094      C2095   1.412       .  A
C2095      C2096   1.398       .  A
C2095      F2102   1.351       .  S
C2096      C2097   1.404       .  A
C2096      H2101   1.083       .  S
C2097      C2098   1.406       .  A
C2098      F2099   1.357       .  S
C2103      C2104   1.409       .  A
C2103      C2108   1.403       .  A
C2103      H2110   1.083       .  S
C2104      C2105   1.411       .  A
C2105      C2106   1.396       .  A
C2105      F2112   1.356       .  S
C2106      C2107   1.402       .  A
C2106      H2111   1.084       .  S
C2107      C2108   1.406       .  A
C2108      F2109   1.357       .  S
C2113      C2114   1.409       .  A
C2113      C2118   1.398       .  A
C2113      H2120   1.077       .  S
C2114      C2115   1.413       .  A
C2115      C2116   1.393       .  A
C2115      F2122   1.358       .  S
C2116      C2117   1.403       .  A
C2116      H2121   1.083       .  S
C2117      C2118   1.409       .  A
C2118      F2119   1.357       .  S
C2123      C2124   1.411       .  A
C2123      C2128   1.396       .  A
C2123      H2130   1.083       .  S
C2124      C2125   1.408       .  A
C2125      C2126   1.399       .  A
C2125      F2132   1.357       .  S
C2126      C2127   1.403       .  A
C2126      H2131   1.084       .  S
C2127      C2128   1.398       .  A
C2128      F2129   1.357       .  S
C2133      C2134   1.409       .  A
C2133      C2138   1.404       .  A
C2133      H2140   1.083       .  S
C2134      C2135   1.409       .  A
C2135      C2136   1.394       .  A
C2135      F2142   1.356       .  S
C2136      C2137   1.403       .  A
C2136      H2141   1.084       .  S
C2137      C2138   1.406       .  A
C2138      F2139   1.357       .  S
C2143      C2144   1.410       .  A
C2143      C2148   1.397       .  A
C2143      H2150   1.078       .  S
C2144      C2145   1.413       .  A
C2145      C2146   1.393       .  A
C2145      F2152   1.357       .  S
C2146      C2147   1.401       .  A
C2146      H2151   1.083       .  S
C2147      C2148   1.406       .  A
C2148      F2149   1.358       .  S
C2153      C2154   1.403       .  A
C2153      C2158   1.398       .  A
C2153      H2160   1.083       .  S
C2154      C2155   1.403       .  A
C2155      C2156   1.400       .  A
C2155      F2162   1.358       .  S
C2156      C2157   1.409       .  A
C2156      H2161   1.083       .  S
C2157      C2158   1.408       .  A
C2158      F2159   1.357       .  S
C2163      C2164   1.404       .  A
C2163      C2168   1.401       .  A
C2163      H2170   1.083       .  S
C2164      C2165   1.405       .  A
C2165      C2166   1.392       .  A
C2165      F2172   1.358       .  S
C2166      C2167   1.399       .  A
C2166      H2171   1.084       .  S
C2167      C2168   1.403       .  A
C2168      F2169   1.357       .  S
C2173      C2174   1.402       .  A
C2173      C2178   1.398       .  A
C2173      H2180   1.083       .  S
C2174      C2175   1.413       .  A
C2175      C2176   1.397       .  A
C2175      F2182   1.358       .  S
C2176      C2177   1.397       .  A
C2176      H2181   1.082       .  S
C2177      C2178   1.408       .  A
C2178      F2179   1.358       .  S
C2183      C2184   1.400       .  A
C2183      C2188   1.399       .  A
C2183      H2190   1.083       .  S
C2184      C2185   1.407       .  A
C2185      C2186   1.395       .  A
C2185      F2192   1.358       .  S
C2186      C2187   1.401       .  A
C2186      H2191   1.083       .  S
C2187      C2188   1.408       .  A
C2188      F2189   1.358       .  S
C2193      C2194   1.403       .  A
C2193      C2198   1.399       .  A
C2193      H2200   1.083       .  S
C2194      C2195   1.405       .  A
C2195      C2196   1.405       .  A
C2195      F2202   1.356       .  S
C2196      C2197   1.407       .  A
C2196      H2201   1.083       .  S
C2197      C2198   1.409       .  A
C2198      F2199   1.358       .  S
C2203      C2204   1.405       .  A
C2203      C2208   1.397       .  A
C2203      H2210   1.082       .  S
C2204      C2205   1.413       .  A
C2205      C2206   1.401       .  A
C2205      F2212   1.357       .  S
C2206      C2207   1.402       .  A
C2206      H2211   1.083       .  S
C2207      C2208   1.406       .  A
C2208      F2209   1.358       .  S
C2213      C2214   1.412       .  A
C2213      C2218   1.393       .  A
C2213      H2220   1.082       .  S
C2214      C2215   1.414       .  A
C2215      C2216   1.399       .  A
C2215      F2222   1.355       .  S
C2216      C2217   1.406       .  A
C2216      H2221   1.083       .  S
C2217      C2218   1.405       .  A
C2218      F2219   1.357       .  S
C2223      C2224   1.398       .  A
C2223      C2228   1.397       .  A
C2223      H2230   1.083       .  S
C2224      C2225   1.409       .  A
C2225      C2226   1.396       .  A
C2225      F2232   1.357       .  S
C2226      C2227   1.403       .  A
C2226      H2231   1.083       .  S
C2227      C2228   1.416       .  A
C2228      F2229   1.358       .  S
C2233      C2234   1.403       .  A
C2233      C2238   1.400       .  A
C2233      H2240   1.083       .  S
C2234      C2235   1.412       .  A
C2235      C2236   1.402       .  A
C2235      F2242   1.357       .  S
C2236      C2237   1.403       .  A
C2236      H2241   1.083       .  S
C2237      C2238   1.409       .  A
C2238      F2239   1.358       .  S
C2243      C2244   1.402       .  A
C2243      C2248   1.397       .  A
C2243      H2250   1.083       .  S
C2244      C2245   1.407       .  A
C2245      C2246   1.401       .  A
C2245      F2252   1.357       .  S
C2246      C2247   1.406       .  A
C2246      H2251   1.083       .  S
C2247      C2248   1.409       .  A
C2248      F2249   1.358       .  S
C2253      C2254   1.411       .  A
C2253      C2258   1.397       .  A
C2253      H2260   1.080       .  S
C2254      C2255   1.413       .  A
C2255      C2256   1.393       .  A
C2255      F2262   1.357       .  S
C2256      C2257   1.403       .  A
C2256      H2261   1.083       .  S
C2257      C2258   1.406       .  A
C2258      F2259   1.357       .  S
C2263      C2264   1.408       .  A
C2263      C2268   1.398       .  A
C2263      H2270   1.083       .  S
C2264      C2265   1.408       .  A
C2265      C2266   1.401       .  A
C2265      F2272   1.357       .  S
C2266      C2267   1.406       .  A
C2266      H2271   1.083       .  S
C2267      C2268   1.405       .  A
C2268      F2269   1.358       .  S
C2273      C2274   1.398       .  A
C2273      C2278   1.393       .  A
C2273      H2280   1.084       .  S
C2274      C2275   1.403       .  A
C2275      C2276   1.402       .  A
C2275      F2282   1.357       .  S
C2276      C2277   1.408       .  A
C2276      H2281   1.083       .  S
C2277      C2278   1.411       .  A
C2278      F2279   1.358       .  S
C2283      C2284   1.405       .  A
C2283      C2288   1.400       .  A
C2283      H2290   1.083       .  S
C2284      C2285   1.410       .  A
C2285      C2286   1.400       .  A
C2285      F2292   1.357       .  S
C2286      C2287   1.405       .  A
C2286      H2291   1.083       .  S
C2287      C2288   1.411       .  A
C2288      F2289   1.358       .  S
C2293      C2294   1.408       .  A
C2293      C2298   1.399       .  A
C2293      H2300   1.078       .  S
C2294      C2295   1.414       .  A
C2295      C2296   1.392       .  A
C2295      F2302   1.358       .  S
C2296      C2297   1.401       .  A
C2296      H2301   1.083       .  S
C2297      C2298   1.410       .  A
C2298      F2299   1.358       .  S
C2303      C2304   1.406       .  A
C2303      C2308   1.401       .  A
C2303      H2310   1.083       .  S
C2304      C2305   1.406       .  A
C2305      C2306   1.399       .  A
C2305      F2312   1.357       .  S
C2306      C2307   1.406       .  A
C2306      H2311   1.083       .  S
C2307      C2308   1.408       .  A
C2308      F2309   1.357       .  S
C2313      C2314   1.409       .  A
C2313      C2318   1.395       .  A
C2313      H2320   1.077       .  S
C2314      C2315   1.414       .  A
C2315      C2316   1.394       .  A
C2315      F2322   1.358       .  S
C2316      C2317   1.402       .  A
C2316      H2321   1.083       .  S
C2317      C2318   1.408       .  A
C2318      F2319   1.358       .  S
C2323      C2324   1.403       .  A
C2323      C2328   1.404       .  A
C2323      H2330   1.083       .  S
C2324      C2325   1.406       .  A
C2325      C2326   1.395       .  A
C2325      F2332   1.358       .  S
C2326      C2327   1.404       .  A
C2326      H2331   1.082       .  S
C2327      C2328   1.413       .  A
C2328      F2329   1.357       .  S
C2333      C2334   1.408       .  A
C2333      C2338   1.398       .  A
C2333      H2340   1.077       .  S
C2334      C2335   1.413       .  A
C2335      C2336   1.394       .  A
C2335      F2342   1.358       .  S
C2336      C2337   1.402       .  A
C2336      H2341   1.083       .  S
C2337      C2338   1.409       .  A
C2338      F2339   1.358   1_554  S
C2343      C2344   1.406       .  A
C2343      C2348   1.394       .  A
C2343      H2350   1.083       .  S
C2344      C2345   1.409       .  A
C2345      C2346   1.404       .  A
C2345      F2352   1.357       .  S
C2346      C2347   1.405       .  A
C2346      H2351   1.083       .  S
C2347      C2348   1.404       .  A
C2348      F2349   1.357       .  S
C2353      C2354   1.401       .  A
C2353      C2358   1.393       .  A
C2353      H2360   1.083       .  S
C2354      C2355   1.408       .  A
C2355      C2356   1.399       .  A
C2355      F2362   1.357   1_455  S
C2356      C2357   1.408       .  A
C2356      H2361   1.077       .  S
C2357      C2358   1.414       .  A
C2358      F2359   1.358       .  S
C2363      C2364   1.407       .  A
C2363      C2368   1.396       .  A
C2363      H2370   1.083       .  S
C2364      C2365   1.403       .  A
C2365      C2366   1.397       .  A
C2365      F2372   1.357       .  S
C2366      C2367   1.410       .  A
C2366      H2371   1.083       .  S
C2367      C2368   1.407       .  A
C2368      F2369   1.357       .  S
C2373      C2374   1.411       .  A
C2373      C2378   1.402       .  A
C2373      H2380   1.082       .  S
C2374      C2375   1.406       .  A
C2375      C2376   1.397       .  A
C2375      F2382   1.353       .  S
C2376      C2377   1.406       .  A
C2376      H2381   1.083       .  S
C2377      C2378   1.406       .  A
C2378      F2379   1.357       .  S
C2383      C2384   1.412       .  A
C2383      C2388   1.398       .  A
C2383      H2390   1.079       .  S
C2384      C2385   1.413       .  A
C2385      C2386   1.394       .  A
C2385      F2392   1.358       .  S
C2386      C2387   1.403       .  A
C2386      H2391   1.083       .  S
C2387      C2388   1.405       .  A
C2388      F2389   1.357       .  S
C2393      C2394   1.403       .  A
C2393      C2398   1.395       .  A
C2393      H2400   1.083       .  S
C2394      C2395   1.409       .  A
C2395      C2396   1.404       .  A
C2395      F2402   1.357       .  S
C2396      C2397   1.405       .  A
C2396      H2401   1.083       .  S
C2397      C2398   1.406       .  A
C2398      F2399   1.358       .  S
C2403      C2404   1.400       .  A
C2403      C2408   1.401       .  A
C2403      H2410   1.083       .  S
C2404      C2405   1.410       .  A
C2405      C2406   1.404       .  A
C2405      F2412   1.358       .  S
C2406      C2407   1.405       .  A
C2406      H2411   1.083       .  S
C2407      C2408   1.413       .  A
C2408      F2409   1.357       .  S
C2413      C2414   1.404       .  A
C2413      C2418   1.404       .  A
C2413      H2420   1.083       .  S
C2414      C2415   1.408       .  A
C2415      C2416   1.400       .  A
C2415      F2422   1.357       .  S
C2416      C2417   1.406       .  A
C2416      H2421   1.083       .  S
C2417      C2418   1.410       .  A
C2418      F2419   1.357       .  S
C2423      C2424   1.408       .  A
C2423      C2428   1.403       .  A
C2423      H2430   1.083       .  S
C2424      C2425   1.403       .  A
C2425      C2426   1.398       .  A
C2425      F2432   1.353       .  S
C2426      C2427   1.406       .  A
C2426      H2431   1.083       .  S
C2427      C2428   1.407       .  A
C2428      F2429   1.357       .  S
C2433      C2434   1.405       .  A
C2433      C2438   1.403       .  A
C2433      H2440   1.083       .  S
C2434      C2435   1.408       .  A
C2435      C2436   1.396       .  A
C2435      F2442   1.358       .  S
C2436      C2437   1.405       .  A
C2436      H2441   1.079       .  S
C2437      C2438   1.414       .  A
C2438      F2439   1.356       .  S
C2443      C2444   1.411       .  A
C2443      C2448   1.400       .  A
C2443      H2450   1.077       .  S
C2444      C2445   1.412       .  A
C2445      C2446   1.395       .  A
C2445      F2452   1.358       .  S
C2446      C2447   1.404       .  A
C2446      H2451   1.083       .  S
C2447      C2448   1.408       .  A
C2448      F2449   1.357       .  S
C2453      C2454   1.404       .  A
C2453      C2458   1.394       .  A
C2453      H2460   1.083       .  S
C2454      C2455   1.405       .  A
C2455      C2456   1.396       .  A
C2455      F2462   1.358       .  S
C2456      C2457   1.412       .  A
C2456      H2461   1.076       .  S
C2457      C2458   1.411       .  A
C2458      F2459   1.358       .  S
C2463      C2464   1.402       .  A
C2463      C2468   1.393       .  A
C2463      H2470   1.083       .  S
C2464      C2465   1.405       .  A
C2465      C2466   1.398       .  A
C2465      F2472   1.358       .  S
C2466      C2467   1.412       .  A
C2466      H2471   1.078       .  S
C2467      C2468   1.412       .  A
C2468      F2469   1.357       .  S
C2473      C2474   1.401       .  A
C2473      C2478   1.400       .  A
C2473      H2480   1.080       .  S
C2474      C2475   1.410       .  A
C2475      C2476   1.402       .  A
C2475      F2482   1.357       .  S
C2476      C2477   1.404       .  A
C2476      H2481   1.083       .  S
C2477      C2478   1.411       .  A
C2478      F2479   1.358       .  S
C2483      C2484   1.399       .  A
C2483      C2488   1.397       .  A
C2483      H2490   1.083       .  S
C2484      C2485   1.411       .  A
C2485      C2486   1.394       .  A
C2485      F2492   1.358       .  S
C2486      C2487   1.402       .  A
C2486      H2491   1.083       .  S
C2487      C2488   1.414       .  A
C2488      F2489   1.358       .  S
C2493      C2494   1.400       .  A
C2493      C2498   1.398       .  A
C2493      H2500   1.083       .  S
C2494      C2495   1.405       .  A
C2495      C2496   1.398       .  A
C2495      F2502   1.358       .  S
C2496      C2497   1.411       .  A
C2496      H2501   1.079       .  S
C2497      C2498   1.417       .  A
C2498      F2499   1.357       .  S
C2503      C2504   1.399       .  A
C2503      C2508   1.400       .  A
C2503      H2510   1.084       .  S
C2504      C2505   1.406       .  A
C2505      C2506   1.402       .  A
C2505      F2512   1.357       .  S
C2506      C2507   1.405       .  A
C2506      H2511   1.083       .  S
C2507      C2508   1.415       .  A
C2508      F2509   1.358       .  S
C2513      C2514   1.406       .  A
C2513      C2518   1.397       .  A
C2513      H2520   1.075       .  S
C2514      C2515   1.422       .  A
C2515      C2516   1.403       .  A
C2515      F2522   1.355       .  S
C2516      C2517   1.401       .  A
C2516      H2521   1.083       .  S
C2517      C2518   1.410       .  A
C2518      F2519   1.358       .  S
C2523      C2524   1.404       .  A
C2523      C2528   1.398       .  A
C2523      H2530   1.085       .  S
C2524      C2525   1.413       .  A
C2525      C2526   1.390       .  A
C2525      F2532   1.357       .  S
C2526      C2527   1.393       .  A
C2526      H2531   1.083       .  S
C2527      C2528   1.408       .  A
C2528      F2529   1.358       .  S
C2533      C2534   1.409       .  A
C2533      C2538   1.396       .  A
C2533      H2540   1.083       .  S
C2534      C2535   1.406       .  A
C2535      C2536   1.397       .  A
C2535      F2542   1.357       .  S
C2536      C2537   1.405       .  A
C2536      H2541   1.084       .  S
C2537      C2538   1.399       .  A
C2538      F2539   1.358       .  S
C2543      C2544   1.402       .  A
C2543      C2548   1.398       .  A
C2543      H2550   1.083       .  S
C2544      C2545   1.410       .  A
C2545      C2546   1.398       .  A
C2545      F2552   1.357       .  S
C2546      C2547   1.402       .  A
C2546      H2551   1.083       .  S
C2547      C2548   1.409       .  A
C2548      F2549   1.358       .  S
C2553      C2554   1.406       .  A
C2553      C2558   1.396       .  A
C2553      H2560   1.083       .  S
C2554      C2555   1.400       .  A
C2555      C2556   1.395       .  A
C2555      F2562   1.358       .  S
C2556      C2557   1.408       .  A
C2556      H2561   1.083       .  S
C2557      C2558   1.404       .  A
C2558      F2559   1.357       .  S
C2563      C2564   1.408       .  A
C2563      C2568   1.404       .  A
C2563      H2570   1.083       .  S
C2564      C2565   1.409       .  A
C2565      C2566   1.396       .  A
C2565      F2572   1.358       .  S
C2566      C2567   1.403       .  A
C2566      H2571   1.083       .  S
C2567      C2568   1.406       .  A
C2568      F2569   1.357       .  S
C2573      C2574   1.411       .  A
C2573      C2578   1.397       .  A
C2573      H2580   1.083       .  S
C2574      C2575   1.406       .  A
C2575      C2576   1.399       .  A
C2575      F2582   1.357       .  S
C2576      C2577   1.408       .  A
C2576      H2581   1.083       .  S
C2577      C2578   1.399       .  A
C2578      F2579   1.353       .  S
C2583      C2584   1.406       .  A
C2583      C2588   1.396       .  A
C2583      H2590   1.082       .  S
C2584      C2585   1.413       .  A
C2585      C2586   1.406       .  A
C2585      F2592   1.357       .  S
C2586      C2587   1.405       .  A
C2586      H2591   1.083       .  S
C2587      C2588   1.407       .  A
C2588      F2589   1.358       .  S
C2593      C2594   1.412       .  A
C2593      C2598   1.401       .  A
C2593      H2600   1.077       .  S
C2594      C2595   1.411       .  A
C2595      C2596   1.390       .  A
C2595      F2602   1.358       .  S
C2596      C2597   1.403       .  A
C2596      H2601   1.083       .  S
C2597      C2598   1.408       .  A
C2598      F2599   1.358       .  S
C2603      C2604   1.402       .  A
C2603      C2608   1.399       .  A
C2603      H2610   1.083       .  S
C2604      C2605   1.408       .  A
C2605      C2606   1.400       .  A
C2605      F2612   1.357       .  S
C2606      C2607   1.404       .  A
C2606      H2611   1.083       .  S
C2607      C2608   1.410       .  A
C2608      F2609   1.358       .  S
C2613      C2614   1.402       .  A
C2613      C2618   1.392       .  A
C2613      H2620   1.083       .  S
C2614      C2615   1.408       .  A
C2615      C2616   1.399       .  A
C2615      F2622   1.358       .  S
C2616      C2617   1.410       .  A
C2616      H2621   1.077       .  S
C2617      C2618   1.412       .  A
C2618      F2619   1.358       .  S
C2623      C2624   1.413       .  A
C2623      C2628   1.402       .  A
C2623      H2630   1.081       .  S
C2624      C2625   1.412       .  A
C2625      C2626   1.401       .  A
C2625      F2632   1.354       .  S
C2626      C2627   1.407       .  A
C2626      H2631   1.083       .  S
C2627      C2628   1.406       .  A
C2628      F2629   1.357       .  S
C2633      C2634   1.409       .  A
C2633      C2638   1.404       .  A
C2633      H2640   1.083       .  S
C2634      C2635   1.405       .  A
C2635      C2636   1.397       .  A
C2635      F2642   1.357       .  S
C2636      C2637   1.407       .  A
C2636      H2641   1.083       .  S
C2637      C2638   1.407       .  A
C2638      F2639   1.357   1_565  S
C2643      C2644   1.412       .  A
C2643      C2648   1.399       .  A
C2643      H2650   1.076       .  S
C2644      C2645   1.414       .  A
C2645      C2646   1.395       .  A
C2645      F2652   1.358       .  S
C2646      C2647   1.401       .  A
C2646      H2651   1.083       .  S
C2647      C2648   1.404       .  A
C2648      F2649   1.358       .  S
C2653      C2654   1.408       .  A
C2653      C2658   1.401       .  A
C2653      H2660   1.083       .  S
C2654      C2655   1.408       .  A
C2655      C2656   1.403       .  A
C2655      F2662   1.357       .  S
C2656      C2657   1.408       .  A
C2656      H2661   1.083       .  S
C2657      C2658   1.408       .  A
C2658      F2659   1.357       .  S
C2663      C2664   1.410       .  A
C2663      C2668   1.401       .  A
C2663      H2670   1.078       .  S
C2664      C2665   1.414       .  A
C2665      C2666   1.396       .  A
C2665      F2672   1.358       .  S
C2666      C2667   1.403       .  A
C2666      H2671   1.083       .  S
C2667      C2668   1.410       .  A
C2668      F2669   1.357       .  S
C2673      C2674   1.403       .  A
C2673      C2678   1.406       .  A
C2673      H2680   1.083       .  S
C2674      C2675   1.404       .  A
C2675      C2676   1.400       .  A
C2675      F2682   1.357       .  S
C2676      C2677   1.408       .  A
C2676      H2681   1.083       .  S
C2677      C2678   1.413       .  A
C2678      F2679   1.357       .  S
C2683      C2684   1.409       .  A
C2683      C2688   1.399       .  A
C2683      H2690   1.079       .  S
C2684      C2685   1.418       .  A
C2685      C2686   1.397       .  A
C2685      F2692   1.358       .  S
C2686      C2687   1.398       .  A
C2686      H2691   1.084       .  S
C2687      C2688   1.404       .  A
C2688      F2689   1.357       .  S
C2693      C2694   1.404       .  A
C2693      C2698   1.394       .  A
C2693      H2700   1.083       .  S
C2694      C2695   1.408       .  A
C2695      C2696   1.399       .  A
C2695      F2702   1.357       .  S
C2696      C2697   1.410       .  A
C2696      H2701   1.076       .  S
C2697      C2698   1.412       .  A
C2698      F2699   1.358       .  S
C2703      C2704   1.402       .  A
C2703      C2708   1.393       .  A
C2703      H2710   1.083       .  S
C2704      C2705   1.410       .  A
C2705      C2706   1.401       .  A
C2705      F2712   1.357       .  S
C2706      C2707   1.409       .  A
C2706      H2711   1.078       .  S
C2707      C2708   1.414       .  A
C2708      F2709   1.358       .  S
C2713      C2714   1.403       .  A
C2713      C2718   1.398       .  A
C2713      H2720   1.083       .  S
C2714      C2715   1.412       .  A
C2715      C2716   1.399       .  A
C2715      F2722   1.358       .  S
C2716      C2717   1.400       .  A
C2716      H2721   1.083       .  S
C2717      C2718   1.408       .  A
C2718      F2719   1.357       .  S
C2723      C2724   1.407       .  A
C2723      C2728   1.399       .  A
C2723      H2730   1.083       .  S
C2724      C2725   1.403       .  A
C2725      C2726   1.401       .  A
C2725      F2732   1.357       .  S
C2726      C2727   1.412       .  A
C2726      H2731   1.082       .  S
C2727      C2728   1.407       .  A
C2728      F2729   1.356       .  S
C2733      C2734   1.409       .  A
C2733      C2738   1.394       .  A
C2733      H2740   1.083       .  S
C2734      C2735   1.409       .  A
C2735      C2736   1.401       .  A
C2735      F2742   1.357       .  S
C2736      C2737   1.403       .  A
C2736      H2741   1.083       .  S
C2737      C2738   1.398       .  A
C2738      F2739   1.356       .  S
C2743      C2744   1.408       .  A
C2743      C2748   1.397       .  A
C2743      H2750   1.083       .  S
C2744      C2745   1.400       .  A
C2745      C2746   1.396       .  A
C2745      F2752   1.357       .  S
C2746      C2747   1.411       .  A
C2746      H2751   1.083       .  S
C2747      C2748   1.407       .  A
C2748      F2749   1.357       .  S
C2753      C2754   1.405       .  A
C2753      C2758   1.399       .  A
C2753      H2760   1.083       .  S
C2754      C2755   1.407       .  A
C2755      C2756   1.399       .  A
C2755      F2762   1.357       .  S
C2756      C2757   1.412       .  A
C2756      H2761   1.076       .  S
C2757      C2758   1.413       .  A
C2758      F2759   1.358       .  S
C2763      C2764   1.400       .  A
C2763      C2768   1.392       .  A
C2763      H2770   1.083       .  S
C2764      C2765   1.408       .  A
C2765      C2766   1.398       .  A
C2765      F2772   1.358       .  S
C2766      C2767   1.408       .  A
C2766      H2771   1.077       .  S
C2767      C2768   1.413       .  A
C2768      F2769   1.358       .  S
C2773      C2774   1.410       .  A
C2773      C2778   1.406       .  A
C2773      H2780   1.083       .  S
C2774      C2775   1.414       .  A
C2775      C2776   1.400       .  A
C2775      F2782   1.357       .  S
C2776      C2777   1.399       .  A
C2776      H2781   1.084       .  S
C2777      C2778   1.405       .  A
C2778      F2779   1.357       .  S
C2783      C2784   1.404       .  A
C2783      C2788   1.400       .  A
C2783      H2790   1.082       .  S
C2784      C2785   1.416       .  A
C2785      C2786   1.405       .  A
C2785      F2792   1.357       .  S
C2786      C2787   1.403       .  A
C2786      H2791   1.083       .  S
C2787      C2788   1.411       .  A
C2788      F2789   1.358       .  S
C2793      C2794   1.410       .  A
C2793      C2798   1.395       .  A
C2793      H2800   1.083       .  S
C2794      C2795   1.407       .  A
C2795      C2796   1.397       .  A
C2795      F2802   1.357       .  S
C2796      C2797   1.406       .  A
C2796      H2801   1.083       .  S
C2797      C2798   1.400       .  A
C2798      F2799   1.357       .  S
C2803      C2804   1.409       .  A
C2803      C2808   1.399       .  A
C2803      H2810   1.083       .  S
C2804      C2805   1.404       .  A
C2805      C2806   1.398       .  A
C2805      F2812   1.357       .  S
C2806      C2807   1.406       .  A
C2806      H2811   1.083       .  S
C2807      C2808   1.401       .  A
C2808      F2809   1.357       .  S
C2813      C2814   1.396       .  A
C2813      C2818   1.392       .  A
C2813      H2820   1.084       .  S
C2814      C2815   1.406       .  A
C2815      C2816   1.401       .  A
C2815      F2822   1.358       .  S
C2816      C2817   1.409       .  A
C2816      H2821   1.079       .  S
C2817      C2818   1.417       .  A
C2818      F2819   1.358       .  S
C2823      C2824   1.403       .  A
C2823      C2828   1.394       .  A
C2823      H2830   1.083       .  S
C2824      C2825   1.409       .  A
C2825      C2826   1.400       .  A
C2825      F2832   1.357   1_655  S
C2826      C2827   1.409       .  A
C2826      H2831   1.077       .  S
C2827      C2828   1.414       .  A
C2828      F2829   1.358       .  S
C2833      C2834   1.403       .  A
C2833      C2838   1.403       .  A
C2833      H2840   1.083       .  S
C2834      C2835   1.410       .  A
C2835      C2836   1.398       .  A
C2835      F2842   1.358       .  S
C2836      C2837   1.403       .  A
C2836      H2841   1.082       .  S
C2837      C2838   1.414       .  A
C2838      F2839   1.357       .  S
C2843      C2844   1.401       .  A
C2843      C2848   1.398       .  A
C2843      H2850   1.083       .  S
C2844      C2845   1.410       .  A
C2845      C2846   1.400       .  A
C2845      F2852   1.357       .  S
C2846      C2847   1.403       .  A
C2846      H2851   1.083       .  S
C2847      C2848   1.410       .  A
C2848      F2849   1.358       .  S
C2853      C2854   1.402       .  A
C2853      C2858   1.398       .  A
C2853      H2860   1.083       .  S
C2854      C2855   1.412       .  A
C2855      C2856   1.395       .  A
C2855      F2862   1.358       .  S
C2856      C2857   1.397       .  A
C2856      H2861   1.083       .  S
C2857      C2858   1.409       .  A
C2858      F2859   1.358       .  S
C2863      C2864   1.411       .  A
C2863      C2868   1.399       .  A
C2863      H2870   1.083       .  S
C2864      C2865   1.408       .  A
C2865      C2866   1.399       .  A
C2865      F2872   1.357       .  S
C2866      C2867   1.408       .  A
C2866      H2871   1.083       .  S
C2867      C2868   1.403       .  A
C2868      F2869   1.357       .  S
C2873      C2874   1.397       .  A
C2873      C2878   1.395       .  A
C2873      H2880   1.084       .  S
C2874      C2875   1.405       .  A
C2875      C2876   1.398       .  A
C2875      F2882   1.358       .  S
C2876      C2877   1.410       .  A
C2876      H2881   1.079       .  S
C2877      C2878   1.417       .  A
C2878      F2879   1.357       .  S
C2883      C2884   1.402       .  A
C2883      C2888   1.394       .  A
C2883      H2890   1.083       .  S
C2884      C2885   1.404       .  A
C2885      C2886   1.398       .  A
C2885      F2892   1.358       .  S
C2886      C2887   1.412       .  A
C2886      H2891   1.077       .  S
C2887      C2888   1.412       .  A
C2888      F2889   1.358       .  S
C2893      C2894   1.402       .  A
C2893      C2898   1.403       .  A
C2893      H2900   1.083       .  S
C2894      C2895   1.401       .  A
C2895      C2896   1.401       .  A
C2895      F2902   1.357       .  S
C2896      C2897   1.411       .  A
C2896      H2901   1.083       .  S
C2897      C2898   1.412       .  A
C2898      F2899   1.357       .  S
C2903      C2904   1.405       .  A
C2903      C2908   1.404       .  A
C2903      H2910   1.083       .  S
C2904      C2905   1.409       .  A
C2905      C2906   1.396       .  A
C2905      F2912   1.358       .  S
C2906      C2907   1.404       .  A
C2906      H2911   1.081       .  S
C2907      C2908   1.414       .  A
C2908      F2909   1.357       .  S
C2913      C2914   1.411       .  A
C2913      C2918   1.399       .  A
C2913      H2920   1.083       .  S
C2914      C2915   1.408       .  A
C2915      C2916   1.397       .  A
C2915      F2922   1.357       .  S
C2916      C2917   1.404       .  A
C2916      H2921   1.083       .  S
C2917      C2918   1.401       .  A
C2918      F2919   1.358       .  S
C2923      C2924   1.407       .  A
C2923      C2928   1.398       .  A
C2923      H2930   1.083       .  S
C2924      C2925   1.401       .  A
C2925      C2926   1.398       .  A
C2925      F2932   1.357       .  S
C2926      C2927   1.408       .  A
C2926      H2931   1.083       .  S
C2927      C2928   1.404       .  A
C2928      F2929   1.357       .  S
C2933      C2934   1.398       .  A
C2933      C2938   1.393       .  A
C2933      H2940   1.084       .  S
C2934      C2935   1.405       .  A
C2935      C2936   1.397       .  A
C2935      F2942   1.358       .  S
C2936      C2937   1.410       .  A
C2936      H2941   1.079       .  S
C2937      C2938   1.415       .  A
C2938      F2939   1.357       .  S
C2943      C2944   1.403       .  A
C2943      C2948   1.393       .  A
C2943      H2950   1.083       .  S
C2944      C2945   1.405       .  A
C2945      C2946   1.397       .  A
C2945      F2952   1.358       .  S
C2946      C2947   1.412       .  A
C2946      H2951   1.079       .  S
C2947      C2948   1.413       .  A
C2948      F2949   1.357       .  S
C2953      C2954   1.400       .  A
C2953      C2958   1.399       .  A
C2953      H2960   1.084       .  S
C2954      C2955   1.408       .  A
C2955      C2956   1.398       .  A
C2955      F2962   1.358       .  S
C2956      C2957   1.403       .  A
C2956      H2961   1.083       .  S
C2957      C2958   1.412       .  A
C2958      F2959   1.358       .  S
C2963      C2964   1.403       .  A
C2963      C2968   1.402       .  A
C2963      H2970   1.083       .  S
C2964      C2965   1.407       .  A
C2965      C2966   1.396       .  A
C2965      F2972   1.358       .  S
C2966      C2967   1.404       .  A
C2966      H2971   1.076       .  S
C2967      C2968   1.416       .  A
C2968      F2969   1.357       .  S
C2973      C2974   1.411       .  A
C2973      C2978   1.397       .  A
C2973      H2980   1.083       .  S
C2974      C2975   1.407       .  A
C2975      C2976   1.397       .  A
C2975      F2982   1.357       .  S
C2976      C2977   1.406       .  A
C2976      H2981   1.083       .  S
C2977      C2978   1.400       .  A
C2978      F2979   1.357       .  S
C2983      C2984   1.410       .  A
C2983      C2988   1.398       .  A
C2983      H2990   1.083       .  S
C2984      C2985   1.407       .  A
C2985      C2986   1.398       .  A
C2985      F2992   1.357       .  S
C2986      C2987   1.403       .  A
C2986      H2991   1.084       .  S
C2987      C2988   1.400       .  A
C2988      F2989   1.358       .  S
C2993      C2994   1.404       .  A
C2993      C2998   1.395       .  A
C2993      H3000   1.083       .  S
C2994      C2995   1.404       .  A
C2995      C2996   1.395       .  A
C2995      F3002   1.358       .  S
C2996      C2997   1.412       .  A
C2996      H3001   1.077       .  S
C2997      C2998   1.411       .  A
C2998      F2999   1.357       .  S
C3003      C3004   1.400       .  A
C3003      C3008   1.393       .  A
C3003      H3010   1.083       .  S
C3004      C3005   1.411       .  A
C3005      C3006   1.400       .  A
C3005      F3012   1.358       .  S
C3006      C3007   1.407       .  A
C3006      H3011   1.078       .  S
C3007      C3008   1.415       .  A
C3008      F3009   1.358       .  S
C3013      C3014   1.410       .  A
C3013      C3018   1.398       .  A
C3013      H3020   1.083       .  S
C3014      C3015   1.412       .  A
C3015      C3016   1.403       .  A
C3015      F3022   1.357       .  S
C3016      C3017   1.402       .  A
C3016      H3021   1.083       .  S
C3017      C3018   1.400       .  A
C3018      F3019   1.357       .  S
C3023      C3024   1.403       .  A
C3023      C3028   1.401       .  A
C3023      H3030   1.083       .  S
C3024      C3025   1.409       .  A
C3025      C3026   1.399       .  A
C3025      F3032   1.358       .  S
C3026      C3027   1.403       .  A
C3026      H3031   1.081       .  S
C3027      C3028   1.413       .  A
C3028      F3029   1.357       .  S
C3033      C3034   1.396       .  A
C3033      C3038   1.397       .  A
C3033      H3040   1.084       .  S
C3034      C3035   1.406       .  A
C3035      C3036   1.400       .  A
C3035      F3042   1.358       .  S
C3036      C3037   1.405       .  A
C3036      H3041   1.083       .  S
C3037      C3038   1.416       .  A
C3038      F3039   1.358       .  S
C3043      C3044   1.412       .  A
C3043      C3048   1.399       .  A
C3043      H3050   1.083       .  S
C3044      C3045   1.405       .  A
C3045      C3046   1.398       .  A
C3045      F3052   1.357       .  S
C3046      C3047   1.410       .  A
C3046      H3051   1.083       .  S
C3047      C3048   1.403       .  A
C3048      F3049   1.357       .  S
C3053      C3054   1.403       .  A
C3053      C3058   1.394       .  A
C3053      H3060   1.083       .  S
C3054      C3055   1.410       .  A
C3055      C3056   1.400       .  A
C3055      F3062   1.357       .  S
C3056      C3057   1.409       .  A
C3056      H3061   1.077       .  S
C3057      C3058   1.413       .  A
C3058      F3059   1.358       .  S
C3063      C3064   1.401       .  A
C3063      C3068   1.396       .  A
C3063      H3070   1.083       .  S
C3064      C3065   1.402       .  A
C3065      C3066   1.391       .  A
C3065      F3072   1.358       .  S
C3066      C3067   1.411       .  A
C3066      H3071   1.081       .  S
C3067      C3068   1.414       .  A
C3068      F3069   1.356       .  S
C3073      C3074   1.410       .  A
C3073      C3078   1.400       .  A
C3073      H3080   1.083       .  S
C3074      C3075   1.405       .  A
C3075      C3076   1.400       .  A
C3075      F3082   1.357       .  S
C3076      C3077   1.407       .  A
C3076      H3081   1.083       .  S
C3077      C3078   1.403       .  A
C3078      F3079   1.357       .  S
C3083      C3084   1.406       .  A
C3083      C3088   1.397       .  A
C3083      H3090   1.075       .  S
C3084      C3085   1.419       .  A
C3085      C3086   1.402       .  A
C3085      F3092   1.356       .  S
C3086      C3087   1.401       .  A
C3086      H3091   1.083       .  S
C3087      C3088   1.408       .  A
C3088      F3089   1.358       .  S
C3093      C3094   1.407       .  A
C3093      C3098   1.393       .  A
C3093      H3100   1.083       .  S
C3094      C3095   1.406       .  A
C3095      C3096   1.400       .  A
C3095      F3102   1.357       .  S
C3096      C3097   1.408       .  A
C3096      H3101   1.083       .  S
C3097      C3098   1.398       .  A
C3098      F3099   1.353       .  S
C3103      C3104   1.401       .  A
C3103      C3108   1.393       .  A
C3103      H3110   1.083       .  S
C3104      C3105   1.416       .  A
C3105      C3106   1.398       .  A
C3105      F3112   1.358       .  S
C3106      C3107   1.398       .  A
C3106      H3111   1.083       .  S
C3107      C3108   1.409       .  A
C3108      F3109   1.358       .  S
C3113      C3114   1.403       .  A
C3113      C3118   1.395       .  A
C3113      H3120   1.083       .  S
C3114      C3115   1.406       .  A
C3115      C3116   1.396       .  A
C3115      F3122   1.358       .  S
C3116      C3117   1.411       .  A
C3116      H3121   1.077       .  S
C3117      C3118   1.413       .  A
C3118      F3119   1.357       .  S
C3123      C3124   1.401       .  A
C3123      C3128   1.393       .  A
C3123      H3130   1.083       .  S
C3124      C3125   1.409       .  A
C3125      C3126   1.399       .  A
C3125      F3132   1.358   1_556  S
C3126      C3127   1.408       .  A
C3126      H3131   1.077       .  S
C3127      C3128   1.414       .  A
C3128      F3129   1.358       .  S
C3133      C3134   1.405       .  A
C3133      C3138   1.397       .  A
C3133      H3140   1.083       .  S
C3134      C3135   1.404       .  A
C3135      C3136   1.402       .  A
C3135      F3142   1.357       .  S
C3136      C3137   1.411       .  A
C3136      H3141   1.082       .  S
C3137      C3138   1.407       .  A
C3138      F3139   1.356       .  S
C3143      C3144   1.403       .  A
C3143      C3148   1.398       .  A
C3143      H3150   1.083       .  S
C3144      C3145   1.411       .  A
C3145      C3146   1.398       .  A
C3145      F3152   1.358       .  S
C3146      C3147   1.400       .  A
C3146      H3151   1.083       .  S
C3147      C3148   1.408       .  A
C3148      F3149   1.358       .  S
C3153      C3154   1.408       .  A
C3153      C3158   1.392       .  A
C3153      H3160   1.083       .  S
C3154      C3155   1.410       .  A
C3155      C3156   1.406       .  A
C3155      F3162   1.357       .  S
C3156      C3157   1.404       .  A
C3156      H3161   1.083       .  S
C3157      C3158   1.399       .  A
C3158      F3159   1.358       .  S
C3163      C3164   1.404       .  A
C3163      C3168   1.399       .  A
C3163      H3170   1.083       .  S
C3164      C3165   1.417       .  A
C3165      C3166   1.399       .  A
C3165      F3172   1.357       .  S
C3166      C3167   1.398       .  A
C3166      H3171   1.083       .  S
C3167      C3168   1.410       .  A
C3168      F3169   1.358       .  S
C3173      C3174   1.398       .  A
C3173      C3178   1.396       .  A
C3173      H3180   1.084       .  S
C3174      C3175   1.403       .  A
C3175      C3176   1.397       .  A
C3175      F3182   1.358       .  S
C3176      C3177   1.411       .  A
C3176      H3181   1.079       .  S
C3177      C3178   1.417       .  A
C3178      F3179   1.357       .  S
C3183      C3184   1.413       .  A
C3183      C3188   1.398       .  A
C3183      H3190   1.077       .  S
C3184      C3185   1.411       .  A
C3185      C3186   1.393       .  A
C3185      F3192   1.358       .  S
C3186      C3187   1.402       .  A
C3186      H3191   1.083       .  S
C3187      C3188   1.404       .  A
C3188      F3189   1.358       .  S
C3193      C3194   1.405       .  A
C3193      C3198   1.398       .  A
C3193      H3200   1.077       .  S
C3194      C3195   1.416       .  A
C3195      C3196   1.403       .  A
C3195      F3202   1.356       .  S
C3196      C3197   1.404       .  A
C3196      H3201   1.083       .  S
C3197      C3198   1.409       .  A
C3198      F3199   1.358       .  S
C3203      C3204   1.398       .  A
C3203      C3208   1.398       .  A
C3203      H3210   1.084       .  S
C3204      C3205   1.403       .  A
C3205      C3206   1.403       .  A
C3205      F3212   1.358       .  S
C3206      C3207   1.409       .  A
C3206      H3211   1.083       .  S
C3207      C3208   1.414       .  A
C3208      F3209   1.357       .  S
C3213      C3214   1.410       .  A
C3213      C3218   1.396       .  A
C3213      H3220   1.083       .  S
C3214      C3215   1.406       .  A
C3215      C3216   1.399       .  A
C3215      F3222   1.357       .  S
C3216      C3217   1.405       .  A
C3216      H3221   1.084       .  S
C3217      C3218   1.398       .  A
C3218      F3219   1.358       .  S
C3223      C3224   1.411       .  A
C3223      C3228   1.398       .  A
C3223      H3230   1.083       .  S
C3224      C3225   1.406       .  A
C3225      C3226   1.395       .  A
C3225      F3232   1.357       .  S
C3226      C3227   1.406       .  A
C3226      H3231   1.083       .  S
C3227      C3228   1.402       .  A
C3228      F3229   1.357       .  S
