geometry optimzed in LAMMPS
_audit_creation_date              2020-11-30 
_audit_creation_method            'lammps2cif' 
_symmetry_space_group_name_H-M    'P1' 
_symmetry_Int_Tables_number       1 
_symmetry_cell_setting            triclinic 
loop_ 
_symmetry_equiv_pos_as_xyz 
  x,y,z 
_cell_length_a                    34.57855416 
_cell_length_b                    34.397406880249136 
_cell_length_c                    34.54870871544404 
_cell_angle_alpha                 88.82540473928535 
_cell_angle_beta                  89.16686709550976 
_cell_angle_gamma                 91.1550402462151 
loop_ 
_atom_site_label 
_atom_site_type_symbol 
_atom_site_fract_x 
_atom_site_fract_y 
_atom_site_fract_z 
_atom_site_charge 
O1          O  0.53996004  0.05442944  0.85830373    -0.80800
O2          O  0.53299041  0.05620168  0.63742475    -0.82400
O3          O  0.61285872  0.04396844  0.74016408    -0.79400
O4          O  0.52530901  0.13437691  0.75293695    -0.77800
O5          O  0.45923162  0.13532778  0.75507736    -0.79600
O6          O  0.61142939  0.97751078  0.74203607    -0.80500
O7          O  0.56327496  0.09393845  0.68223629    -0.81800
O8          O  0.57509800  0.08470100  0.80957840    -0.82100
Eu9        Eu  0.54649470  0.06692651  0.74736808     2.39200
O10         O  0.49077119  0.06596343  0.70963107    -0.89600
O11         O  0.54501529  0.01165750  0.78844684    -0.93200
C12         C  0.56802544  0.07673988  0.84575764     1.01400
C13         C  0.55549113  0.08477252  0.64704605     1.01300
C14         C  0.62924709  0.01071981  0.73768026     1.01200
C15         C  0.49297307  0.15215915  0.75664439     0.99100
H16         H  0.56744247  0.00996400  0.69222860     0.28800
O17         O  0.54567968  0.01027225  0.70990460    -1.02000
H18         H  0.49252177  0.08981712  0.80492793     0.28800
O19         O  0.49167061  0.06727684  0.78873881    -1.04600
O20         O  0.44633298  0.96070312  0.64474482    -0.81800
O21         O  0.44049583  0.97139874  0.86527942    -0.81300
O22         O  0.56126319  0.92546989  0.68917547    -0.79800
O23         O  0.41727756  0.09160219  0.68589354    -0.83100
O24         O  0.41025344  0.08522603  0.81422877    -0.81000
O25         O  0.57224978  0.93853902  0.81422138    -0.79600
O26         O  0.45327470  0.88861686  0.76769288    -0.81100
O27         O  0.36591640  0.97772421  0.74728287    -0.83100
O28         O  0.51950840  0.88882228  0.76493855    -0.79800
O29         O  0.36809516  0.04424421  0.74454058    -0.82500
O30         O  0.53159997  0.96048444  0.64191052    -0.78200
O31         O  0.53749273  0.96875230  0.86131163    -0.78200
O32         O  0.44771798  0.05814844  0.86151532    -0.77900
O33         O  0.44612786  0.05415203  0.64041660    -0.81400
O34         O  0.41553300  0.92684337  0.69412843    -0.80800
O35         O  0.40393796  0.94055568  0.82025905    -0.79100
Eu36       Eu  0.48991600  0.00907880  0.67275850     2.39800
Eu37       Eu  0.49053002  0.01212705  0.83010967     2.39600
Eu38       Eu  0.54402489  0.95511118  0.75161673     2.38400
Eu39       Eu  0.43577269  0.06718460  0.75038412     2.39900
Eu40       Eu  0.43278172  0.95571426  0.75580613     2.39800
O41         O  0.43445501  0.01239670  0.79227740    -0.93600
O42         O  0.48778992  0.95422555  0.71467465    -0.92400
C43         C  0.42318334  0.93349921  0.65793699     1.01600
C44         C  0.41168977  0.94910657  0.85561814     1.00300
C45         C  0.55378411  0.93275611  0.65318844     0.99700
C46         C  0.42391615  0.08203390  0.65044220     1.01700
C47         C  0.41978801  0.07949254  0.84986109     1.00700
C48         C  0.56468700  0.94616210  0.84990833     0.99500
C49         C  0.48623628  0.87197059  0.77103930     0.99600
C50         C  0.34992378  0.01112003  0.74268514     1.02200
H51         H  0.48875919  0.93466086  0.81197044     0.29500
O52         O  0.48910106  0.95605033  0.79341399    -1.05700
H53         H  0.41278649  0.00985242  0.69674250     0.31600
O54         O  0.43493147  0.01032619  0.71340490    -1.08300
C55         C  0.68772835  0.20467547  0.49213200     0.85800
C56         C  0.66876885  0.18395834  0.52748146    -0.54500
C57         C  0.62928424  0.18294073  0.52756519     0.08700
C58         C  0.61190027  0.20351054  0.49163553     0.19700
C59         C  0.67030117  0.18324114  0.45745198    -0.55200
C60         C  0.63063504  0.18248841  0.45741777     0.08800
C61         C  0.66985781  0.24468159  0.48973588    -0.54700
C62         C  0.63061396  0.24483627  0.48953752     0.09400
H63         H  0.68540480  0.16957571  0.54983405     0.13900
H64         H  0.57981714  0.20308607  0.49114955    -0.00400
H65         H  0.68681006  0.16865856  0.43542379     0.14200
H66         H  0.68734980  0.27129096  0.48753273     0.14000
O67         O  0.53592885  0.05908273  0.35545366    -0.80800
O68         O  0.53809608  0.04776469  0.13508233    -0.82400
O69         O  0.61564102  0.04272115  0.25458729    -0.79400
O70         O  0.52653936  0.12900848  0.23432945    -0.77800
O71         O  0.46054024  0.12751384  0.23505358    -0.79600
O72         O  0.61598829  0.97636726  0.25664964    -0.80500
O73         O  0.57590952  0.07855593  0.17953036    -0.81800
O74         O  0.56683823  0.09280122  0.30608034    -0.82100
Eu75       Eu  0.54879608  0.06306020  0.24485403     2.39200
O76         O  0.49250370  0.06206825  0.20724494    -0.89600
O77         O  0.54859494  0.00892466  0.28730822    -0.93200
C78         C  0.55859367  0.08674503  0.34227060     1.01400
C79         C  0.56690440  0.06992780  0.14448558     1.01300
C80         C  0.63296006  0.01007719  0.25890106     1.01200
C81         C  0.49359123  0.14527847  0.23069533     0.99100
H82         H  0.57126524  0.00644961  0.19223972     0.28800
O83         O  0.54822112  0.00666930  0.20833892    -1.02000
H84         H  0.49320089  0.08716769  0.29959420     0.28800
O85         O  0.49352107  0.06318970  0.28548650    -1.04600
O86         O  0.44337796  0.96202446  0.14223537    -0.81800
O87         O  0.45212634  0.96134308  0.36473675    -0.81300
O88         O  0.57381604  0.93273498  0.18741958    -0.79800
O89         O  0.40849084  0.07679317  0.18556376    -0.83100
O90         O  0.41806127  0.08976612  0.30935755    -0.81000
O91         O  0.56964282  0.92923803  0.31381174    -0.79600
O92         O  0.45966052  0.88212347  0.24592031    -0.81100
O93         O  0.37092101  0.96862097  0.26395651    -0.83100
O94         O  0.52563059  0.88454858  0.24463713    -0.79800
O95         O  0.37171959  0.03521746  0.26114925    -0.82500
O96         O  0.53573877  0.96007097  0.14120729    -0.78200
O97         O  0.54025450  0.96542588  0.36043101    -0.78200
O98         O  0.44783972  0.05539851  0.35738842    -0.77900
O99         O  0.44347612  0.04663130  0.13885503    -0.81400
O100        O  0.40936970  0.93080077  0.19128274    -0.80800
O101        O  0.42256843  0.92259336  0.32024261    -0.79100
Eu102      Eu  0.49137355  0.00526113  0.17121511     2.39800
Eu103      Eu  0.49364210  0.00883615  0.32828275     2.39600
Eu104      Eu  0.54862065  0.95240674  0.25037543     2.38400
Eu105      Eu  0.43752457  0.06068330  0.24825467     2.39900
Eu106      Eu  0.43774764  0.94877429  0.25407159     2.39800
O107        O  0.43798389  0.00598023  0.29038748    -0.93600
O108        O  0.49245331  0.95022243  0.21277416    -0.92400
C109        C  0.41585875  0.93920730  0.15500566     1.01600
C110        C  0.43050469  0.93202366  0.35538994     1.00300
C111        C  0.56407420  0.93880446  0.15193248     0.99700
C112        C  0.41569102  0.06863650  0.14988090     1.01700
C113        C  0.42474354  0.08216385  0.34532716     1.00700
C114        C  0.56292805  0.93819060  0.34930246     0.99500
C115        C  0.49287450  0.86606122  0.24228772     0.99600
C116        C  0.35455833  0.00182660  0.26650734     1.02200
H117        H  0.49479966  0.92863302  0.30797050     0.29500
O118        O  0.49391778  0.95156499  0.29144388    -1.05700
H119        H  0.41304155  0.00336852  0.19820379     0.31600
O120        O  0.43672075  0.00386397  0.21265324    -1.08300
C121        C  0.29596390  0.80818779  0.00317053     0.85800
C122        C  0.31275066  0.83109201  0.96798436    -0.54500
C123        C  0.31243674  0.87054082  0.97150637     0.08700
C124        C  0.29489583  0.88384363  0.01045524     0.19700
C125        C  0.32050549  0.82343612  0.03692797    -0.55200
C126        C  0.31939001  0.86298250  0.04148396     0.08800
C127        C  0.25618137  0.82431549  0.01136548    -0.54700
C128        C  0.25462651  0.86346950  0.01391951     0.09400
H129        H  0.32557568  0.81711304  0.94311714     0.13900
H130        H  0.29385268  0.91590720  0.01284168    -0.00400
H131        H  0.33892963  0.80566461  0.05458311     0.14200
H132        H  0.23054460  0.80561090  0.01455365     0.14000
C133        C  0.68721273  0.81453092  0.99815855     0.85800
C134        C  0.66011982  0.82712646  0.03148204    -0.54500
C135        C  0.65476042  0.86626233  0.03284854     0.08700
C136        C  0.67495585  0.88936953  0.99979382     0.19700
C137        C  0.66729484  0.83082575  0.96176377    -0.55200
C138        C  0.66100588  0.86995502  0.96275430     0.08800
C139        C  0.72384386  0.83976964  0.00245077    -0.54700
C140        C  0.71742233  0.87872320  0.00360474     0.09400
H141        H  0.64499080  0.80745068  0.05161112     0.13900
H142        H  0.67013703  0.92116553  0.00049670    -0.00400
H143        H  0.65718596  0.81286481  0.93834576     0.14200
H144        H  0.75242879  0.82767175  0.00572444     0.14000
C145        C  0.68285943  0.80636401  0.50203672     0.85800
C146        C  0.67370944  0.83536807  0.46892126    -0.54500
C147        C  0.63580727  0.84548539  0.46737061     0.08700
C148        C  0.60986600  0.82575579  0.49851392     0.19700
C149        C  0.66676672  0.82503188  0.53922407    -0.55200
C150        C  0.62876898  0.83589682  0.53726874     0.08800
C151        C  0.65405584  0.77204721  0.49580924    -0.54700
C152        C  0.61629935  0.78231739  0.49342170     0.09400
H153        H  0.69504678  0.84573489  0.44754995     0.13900
H154        H  0.57897805  0.83365395  0.49630716    -0.00400
H155        H  0.68402306  0.82961444  0.56468014     0.14200
H156        H  0.66128785  0.74175601  0.49391302     0.14000
C157        C  0.29103257  0.19699727  0.00347434     0.85800
C158        C  0.30711657  0.17761206  0.04058064    -0.54500
C159        C  0.31386175  0.13869352  0.03723334     0.08700
C160        C  0.30328158  0.12243173  0.99753055     0.19700
C161        C  0.32115886  0.18690305  0.97204721    -0.55200
C162        C  0.32689012  0.14795833  0.96865623     0.08800
C163        C  0.25496235  0.17255308  0.99433923    -0.54700
C164        C  0.26121295  0.13380985  0.99055286     0.09400
H165        H  0.31632879  0.19321914  0.06586020     0.13900
H166        H  0.30853364  0.09083222  0.99478324    -0.00400
H167        H  0.33582369  0.20847171  0.95338529     0.14200
H168        H  0.22664013  0.18515944  0.99080798     0.14000
C169        C  0.68653730  0.20702599  0.99634209     0.85800
C170        C  0.66455228  0.19143867  0.96140700    -0.54500
C171        C  0.66439113  0.15180232  0.95895472     0.08700
C172        C  0.68537785  0.13117049  0.99237914     0.19700
C173        C  0.66639603  0.18622654  0.03117341    -0.55200
C174        C  0.66505026  0.14665503  0.02891100     0.08800
C175        C  0.72631415  0.18928655  0.99387876    -0.54700
C176        C  0.72639171  0.14999110  0.99148636     0.09400
H177        H  0.64937386  0.21005603  0.94118913     0.13900
H178        H  0.68492890  0.09895572  0.99080979    -0.00400
H179        H  0.65086696  0.20071904  0.05397126     0.14200
H180        H  0.75274615  0.20699149  0.99282493     0.14000
C181        C  0.29734196  0.20851261  0.49639818     0.85800
C182        C  0.31081527  0.18798802  0.45947143    -0.54500
C183        C  0.34908463  0.17847228  0.45919428     0.08700
C184        C  0.37082601  0.19072342  0.49576712     0.19700
C185        C  0.30931919  0.18116727  0.53007586    -0.55200
C186        C  0.34772912  0.17189396  0.52986831     0.08800
C187        C  0.32553383  0.24347846  0.50039181    -0.54700
C188        C  0.36364494  0.23428731  0.49999127     0.09400
H189        H  0.29138914  0.18028849  0.43630479     0.13900
H190        H  0.40203758  0.18371655  0.49530472    -0.00400
H191        H  0.28941868  0.17092757  0.55275114     0.14200
H192        H  0.31670980  0.27293460  0.50594869     0.14000
C193        C  0.29103636  0.81832088  0.50602971     0.85800
C194        C  0.30746880  0.84135947  0.54020724    -0.54500
C195        C  0.34710732  0.84081969  0.54239823     0.08700
C196        C  0.36657119  0.81716084  0.51020949     0.19700
C197        C  0.31224845  0.83649272  0.47074713    -0.55200
C198        C  0.35153994  0.83641186  0.47271628     0.08800
C199        C  0.30747934  0.77815290  0.51253641    -0.54700
C200        C  0.34674497  0.77628797  0.51393567     0.09400
H201        H  0.29038046  0.85774644  0.56037288     0.13900
H202        H  0.39852130  0.81692710  0.51109238    -0.00400
H203        H  0.29739287  0.85198601  0.44785492     0.14200
H204        H  0.28831187  0.75314740  0.51770078     0.14000
O205        O  0.86560857  0.76567565  0.53226490    -0.80800
O206        O  0.02498737  0.75487146  0.37618402    -0.82400
O207        O  0.91519876  0.82302895  0.41771953    -0.79400
O208        O  0.90932425  0.69587271  0.42353809    -0.77800
O209        O  0.94512993  0.64868909  0.45322956    -0.79600
O210        O  0.94266979  0.87016809  0.45526686    -0.80500
O211        O  0.95901531  0.75340816  0.37710466    -0.81800
O212        O  0.86607242  0.76648469  0.46594751    -0.82100
Eu213      Eu  0.93390038  0.75972472  0.44365025     2.39200
O214        O  0.98992832  0.72241324  0.44376719    -0.89600
O215        O  0.93322634  0.79764627  0.49940290    -0.93200
C216        C  0.84884348  0.76896869  0.49925279     1.01400
C217        C  0.99206646  0.75068966  0.35958076     1.01300
C218        C  0.92113319  0.85861328  0.42733981     1.01200
C219        C  0.91824704  0.66015772  0.43033330     0.99100
H220        H  0.98856721  0.81731255  0.42082751     0.28800
O221        O  0.98875411  0.80111958  0.44396159    -1.02000
H222        H  0.91004216  0.70221916  0.49810921     0.28800
O223        O  0.93314594  0.71838038  0.49847482    -1.04600
O224        O  0.11070291  0.77669862  0.46576014    -0.81800
O225        O  0.95474650  0.74231674  0.62007199    -0.81300
O226        O  0.03040053  0.87461523  0.45255001    -0.79800
O227        O  0.03656657  0.65266267  0.45341674    -0.83100
O228        O  0.94219273  0.64668866  0.54279789    -0.81000
O229        O  0.94181448  0.86718060  0.54683439    -0.79600
O230        O  0.06202411  0.82196374  0.58126415    -0.81100
O231        O  0.07176233  0.69666562  0.57125723    -0.83100
O232        O  0.03210619  0.87011587  0.54733185    -0.79800
O233        O  0.03698081  0.64902818  0.54161483    -0.82500
O234        O  0.06097864  0.82937397  0.41602999    -0.78200
O235        O  0.91231573  0.81745582  0.58192695    -0.78200
O236        O  0.90457506  0.69236724  0.57150880    -0.77900
O237        O  0.07245642  0.70135955  0.42372550    -0.81400
O238        O  0.10973967  0.77383589  0.53194660    -0.80800
O239        O  0.02081224  0.74543358  0.61913630    -0.79100
Eu240      Eu  0.04491475  0.76384851  0.44302155     2.39800
Eu241      Eu  0.93236731  0.75629190  0.55417327     2.39600
Eu242      Eu  0.98792257  0.83928679  0.50029118     2.38400
Eu243      Eu  0.98959873  0.68056554  0.49842735     2.39900
Eu244      Eu  0.04340619  0.75958814  0.55342446     2.39800
O245        O  0.98831796  0.71863457  0.55368446    -0.93600
O246        O  0.04362430  0.80145821  0.49895046    -0.92400
C247        C  0.12683541  0.78013568  0.49899396     1.01600
C248        C  0.98799787  0.73859054  0.63611045     1.00300
C249        C  0.05294642  0.86486115  0.42430537     0.99700
C250        C  0.06436483  0.66497069  0.43074319     1.01700
C251        C  0.91350616  0.65696740  0.56459659     1.00700
C252        C  0.91885784  0.85376404  0.57405090     0.99500
C253        C  0.05517291  0.85811350  0.57408264     0.99600
C254        C  0.06434977  0.66053845  0.56415371     1.02200
H255        H  0.98722490  0.81191977  0.57909544     0.29500
O256        O  0.98754208  0.79741173  0.55544516    -1.05700
H257        H  0.06868434  0.70748233  0.49756172     0.31600
O258        O  0.04512345  0.72207235  0.49774190    -1.08300
O259        O  0.86892575  0.24162019  0.53396973    -0.80800
O260        O  0.03030828  0.27347654  0.38132763    -0.82400
O261        O  0.90893643  0.32051841  0.43135510    -0.79400
O262        O  0.92233847  0.19623543  0.41812517    -0.77800
O263        O  0.95126547  0.14781619  0.45236671    -0.79600
O264        O  0.94139339  0.36841833  0.46291930    -0.80500
O265        O  0.96405496  0.27068878  0.38160231    -0.81800
O266        O  0.87160798  0.24542849  0.46779156    -0.82100
Eu267      Eu  0.93896394  0.25833417  0.44736531     2.39200
O268        O  0.99524044  0.22140511  0.44656696    -0.89600
O269        O  0.93578345  0.29482992  0.50363305    -0.93200
C270        C  0.85333996  0.23934937  0.50025271     1.01400
C271        C  0.99726659  0.27617663  0.36466377     1.01300
C272        C  0.91433998  0.35642019  0.44016575     1.01200
C273        C  0.92932424  0.16009193  0.42480100     0.99100
H274        H  0.99365573  0.31898305  0.42749045     0.28800
O275        O  0.99349908  0.30055501  0.44891369    -1.02000
H276        H  0.91609867  0.19706068  0.50066846     0.28800
O277        O  0.93753233  0.21540700  0.50143164    -1.04600
O278        O  0.11707796  0.25630119  0.47061054    -0.81800
O279        O  0.95566138  0.25919681  0.62506955    -0.81300
O280        O  0.03736317  0.37333520  0.46382655    -0.79800
O281        O  0.03755476  0.15045580  0.45365623    -0.83100
O282        O  0.95283125  0.14250126  0.54916153    -0.81000
O283        O  0.93892083  0.36389744  0.54667259    -0.79600
O284        O  0.07085071  0.32144158  0.57921998    -0.81100
O285        O  0.06545270  0.19233134  0.58298339    -0.83100
O286        O  0.03324427  0.36846048  0.55163538    -0.79800
O287        O  0.03835560  0.14624898  0.54409277    -0.82500
O288        O  0.07691722  0.32907365  0.43544055    -0.78200
O289        O  0.90407922  0.31387682  0.57539377    -0.78200
O290        O  0.92040164  0.18726824  0.58430011    -0.77900
O291        O  0.06910645  0.20015504  0.42060598    -0.81400
O292        O  0.11549806  0.25205120  0.53693548    -0.80800
O293        O  0.02181478  0.26139302  0.62662861    -0.79100
Eu294      Eu  0.05011574  0.26292367  0.44862998     2.39800
Eu295      Eu  0.93513557  0.25267573  0.55779968     2.39600
Eu296      Eu  0.98992046  0.33703802  0.50520122     2.38400
Eu297      Eu  0.99353641  0.17879522  0.50077638     2.39900
Eu298      Eu  0.04681669  0.25721624  0.55935626     2.39800
O299        O  0.99174567  0.21591768  0.55739167    -0.93600
O300        O  0.04672700  0.29967072  0.50516624    -0.92400
C301        C  0.13342173  0.25170684  0.50369998     1.01600
C302        C  0.98796897  0.26329724  0.64294426     1.00300
C303        C  0.06686177  0.36420798  0.44273956     0.99700
C304        C  0.06107449  0.16361093  0.42699230     1.01700
C305        C  0.92985035  0.15198096  0.57712257     1.00700
C306        C  0.91047808  0.35043209  0.56801562     0.99500
C307        C  0.06095688  0.35707466  0.57352579     0.99600
C308        C  0.05993451  0.15693519  0.57217169     1.02200
H309        H  0.98874107  0.31088205  0.58167923     0.29500
O310        O  0.98994953  0.29463180  0.55921391    -1.05700
H311        H  0.07082080  0.20392672  0.50232104     0.31600
O312        O  0.04836280  0.22022321  0.50272452    -1.08300
C313        C  0.79463143  0.50277210  0.69823333     0.85800
C314        C  0.81551097  0.46743736  0.68097193    -0.54500
C315        C  0.81700238  0.46765654  0.64123299     0.08700
C316        C  0.79705874  0.50277205  0.62253818     0.19700
C317        C  0.81665930  0.53770676  0.68002986    -0.55200
C318        C  0.81784807  0.53810473  0.64067975     0.08800
C319        C  0.75499088  0.50209577  0.67946846    -0.54700
C320        C  0.75557506  0.50094418  0.64016362     0.09400
H321        H  0.82984985  0.44524368  0.69779651     0.13900
H322        H  0.79808582  0.50276178  0.59048173    -0.00400
H323        H  0.83162999  0.55952597  0.69687659     0.14200
H324        H  0.72826346  0.50105136  0.69645071     0.14000
C325        C  0.18530304  0.51068247  0.69845855     0.85800
C326        C  0.16690201  0.54750295  0.68128323    -0.54500
C327        C  0.16098713  0.54646761  0.64217864     0.08700
C328        C  0.17385384  0.50821733  0.62370118     0.19700
C329        C  0.15751208  0.47736892  0.68580493    -0.55200
C330        C  0.15141220  0.47650614  0.64691267     0.08800
C331        C  0.22192300  0.50436359  0.67405547    -0.54700
C332        C  0.21625178  0.50237329  0.63519888     0.09400
H333        H  0.15752816  0.57134865  0.69903150     0.13900
H334        H  0.16909231  0.50712889  0.59201404    -0.00400
H335        H  0.14446346  0.45501481  0.70437892     0.14200
H336        H  0.25019966  0.50099631  0.68685287     0.14000
C337        C  0.79800629  0.01087359  0.30029497     0.85800
C338        C  0.80880776  0.97703687  0.32768446    -0.54500
C339        C  0.84751745  0.97457896  0.33421731     0.08700
C340        C  0.87219792  0.00666677  0.31411226     0.19700
C341        C  0.81553453  0.04698414  0.32059025    -0.55200
C342        C  0.85423947  0.04444566  0.32828355     0.08800
C343        C  0.82370615  0.00692554  0.26409305    -0.54700
C344        C  0.86214700  0.00386129  0.27121539     0.09400
H345        H  0.78774898  0.95704626  0.34117103     0.13900
H346        H  0.90366007  0.00449293  0.31957829    -0.00400
H347        H  0.79936333  0.07146122  0.33065587     0.14200
H348        H  0.81235394  0.00603342  0.23496334     0.14000
C349        C  0.79426376  0.00489644  0.69927496     0.85800
C350        C  0.81653272  0.04128505  0.68324623    -0.54500
C351        C  0.85553366  0.03628219  0.67895714     0.08700
C352        C  0.86884007  0.99546130  0.69164441     0.19700
C353        C  0.80538124  0.97263515  0.67125730    -0.55200
C354        C  0.84425593  0.96796293  0.66730214     0.08800
C355        C  0.81463676  0.99523055  0.73702593    -0.54700
C356        C  0.85320743  0.98901736  0.73352775     0.09400
H357        H  0.80334802  0.06785291  0.67329768     0.13900
H358        H  0.90021680  0.99083111  0.68755875    -0.00400
H359        H  0.78439898  0.95498817  0.65598534     0.14200
H360        H  0.79929459  0.99300911  0.76470028     0.14000
C361        C  0.78777934  0.50528437  0.31008078     0.85800
C362        C  0.81472819  0.53997220  0.31970282    -0.54500
C363        C  0.82270156  0.54323759  0.35824970     0.08700
C364        C  0.80295051  0.51120910  0.38386931     0.19700
C365        C  0.80848483  0.46957853  0.32817653    -0.55200
C366        C  0.81684240  0.47298661  0.36666357     0.08800
C367        C  0.75200508  0.51021234  0.33609615    -0.54700
C368        C  0.75983430  0.51388524  0.37436573     0.09400
H369        H  0.82544745  0.56068874  0.29780670     0.13900
H370        H  0.80855290  0.51327601  0.41529503    -0.00400
H371        H  0.81786428  0.44449665  0.31247811     0.14200
H372        H  0.72283953  0.51199931  0.32498600     0.14000
C373        C  0.18065785  0.51386421  0.30097490     0.85800
C374        C  0.15953208  0.47966115  0.32242984    -0.54500
C375        C  0.16043462  0.48174381  0.36184539     0.08700
C376        C  0.18244156  0.51794921  0.37650253     0.19700
C377        C  0.16082733  0.54981351  0.31710135    -0.55200
C378        C  0.16209166  0.55229457  0.35648229     0.08800
C379        C  0.22120014  0.51474407  0.31755662    -0.54700
C380        C  0.22271047  0.51685477  0.35660591     0.09400
H381        H  0.14290740  0.45698268  0.30859859     0.13900
H382        H  0.18312934  0.51978295  0.40854907    -0.00400
H383        H  0.14526741  0.57032657  0.29914083     0.14200
H384        H  0.24712765  0.51490421  0.29934268     0.14000
C385        C  0.18939398  0.01174812  0.30177535     0.85800
C386        C  0.17627096  0.04575719  0.32743046    -0.54500
C387        C  0.13702193  0.05018630  0.32979536     0.08700
C388        C  0.11436363  0.01952118  0.30677414     0.19700
C389        C  0.16790996  0.97641549  0.32001299    -0.55200
C390        C  0.12884582  0.98015208  0.32282761     0.08800
C391        C  0.16986150  0.01989389  0.26299058    -0.54700
C392        C  0.13068608  0.02389825  0.26474067     0.09400
H393        H  0.19528492  0.06385713  0.34406090     0.13900
H394        H  0.08282727  0.02275812  0.30942097    -0.00400
H395        H  0.18271863  0.95135185  0.33181575     0.14200
H396        H  0.18622058  0.02189651  0.23591766     0.14000
C397        C  0.18637937  0.00852336  0.69815111     0.85800
C398        C  0.17164914  0.97067606  0.67968058    -0.54500
C399        C  0.13263077  0.96954391  0.67318292     0.08700
C400        C  0.11181284  0.00643696  0.68594828     0.19700
C401        C  0.17226635  0.04069508  0.66989808    -0.55200
C402        C  0.13335265  0.03945082  0.66403095     0.08800
C403        C  0.16122792  0.01310854  0.73464872    -0.54700
C404        C  0.12240782  0.01262596  0.72838201     0.09400
H405        H  0.19103227  0.94846730  0.66966331     0.13900
H406        H  0.08017104  0.00577998  0.68071120    -0.00400
H407        H  0.19013296  0.06284989  0.65546868     0.14200
H408        H  0.17335469  0.01722188  0.76314043     0.14000
O409        O  0.73539995  0.63369097  0.96713638    -0.80800
O410        O  0.74671987  0.47499962  0.12590435    -0.82400
O411        O  0.68150488  0.58525542  0.08363704    -0.79400
O412        O  0.80754072  0.58883971  0.07843101    -0.77800
O413        O  0.85372471  0.55234125  0.04964295    -0.79600
O414        O  0.63437029  0.55695841  0.04687593    -0.80500
O415        O  0.74947718  0.54134602  0.12616718    -0.81800
O416        O  0.73639491  0.63218780  0.03318546    -0.82100
Eu417      Eu  0.74396847  0.56511629  0.05789666     2.39200
O418        O  0.78164910  0.50924212  0.05832467    -0.89600
O419        O  0.70594392  0.56575717  0.00177795    -0.93200
C420        C  0.73221571  0.65010968  0.00034986     1.01400
C421        C  0.75071653  0.50755660  0.14340596     1.01300
C422        C  0.64595909  0.57902759  0.07443832     1.01200
C423        C  0.84296503  0.57900713  0.07295631     0.99100
H424        H  0.68723072  0.51010195  0.08133894     0.28800
O425        O  0.70313413  0.50994067  0.05816122    -1.02000
H426        H  0.79976215  0.58982566  0.00249881     0.28800
O427        O  0.78375257  0.56640811  0.00208847    -1.04600
O428        O  0.73005078  0.38768192  0.03614567    -0.81800
O429        O  0.75640855  0.54210607  0.87942022    -0.81300
O430        O  0.63076331  0.46701524  0.04980364    -0.79800
O431        O  0.85155003  0.46268025  0.04753932    -0.83100
O432        O  0.85594027  0.55915359  0.96125697    -0.81000
O433        O  0.63481276  0.55314359  0.95289291    -0.79600
O434        O  0.67997154  0.43566030  0.92248954    -0.81100
O435        O  0.80682795  0.43016067  0.92950332    -0.83100
O436        O  0.63314242  0.46662654  0.95646656    -0.79800
O437        O  0.85434967  0.46642358  0.95818666    -0.82500
O438        O  0.67653139  0.43629600  0.08603781    -0.78200
O439        O  0.68299026  0.58346011  0.91689975    -0.78200
O440        O  0.81036544  0.59320475  0.92843815    -0.77900
O441        O  0.80315014  0.42707405  0.07857674    -0.81400
O442        O  0.73233797  0.38876666  0.97016307    -0.80800
O443        O  0.75149728  0.47594826  0.88190852    -0.79100
Eu444      Eu  0.74077177  0.45391541  0.05892666     2.39800
Eu445      Eu  0.74566042  0.56660841  0.94574491     2.39600
Eu446      Eu  0.66457499  0.51082732  0.00225394     2.38400
Eu447      Eu  0.82195873  0.51011612  0.00307684     2.39900
Eu448      Eu  0.74314783  0.45536961  0.94869907     2.39800
O449        O  0.78381048  0.51083019  0.94741224    -0.93600
O450        O  0.70225438  0.45481007  0.00352362    -0.92400
C451        C  0.72709749  0.37126046  0.00308204     1.01600
C452        C  0.75776093  0.50829683  0.86362421     1.00300
C453        C  0.64120818  0.44446810  0.07802907     0.99700
C454        C  0.83911417  0.43545328  0.07115279     1.01700
C455        C  0.84575741  0.58662576  0.93763918     1.00700
C456        C  0.64689344  0.57529470  0.92434088     0.99500
C457        C  0.64417707  0.44324949  0.92986083     0.99600
C458        C  0.84260417  0.43923970  0.93577134     1.02200
H459        H  0.69051465  0.51042480  0.92342469     0.29500
O460        O  0.70532512  0.51094686  0.94685244    -1.05700
H461        H  0.79653295  0.43038751  0.00396298     0.31600
O462        O  0.78158548  0.45381368  0.00391323    -1.08300
O463        O  0.25558265  0.62643713  0.96458689    -0.80800
O464        O  0.22579820  0.47011687  0.12240390    -0.82400
O465        O  0.17801076  0.58528722  0.07215708    -0.79400
O466        O  0.30236706  0.57682028  0.08232704    -0.77800
O467        O  0.35048240  0.54668443  0.04944135    -0.79600
O468        O  0.13057482  0.55071501  0.04143875    -0.80500
O469        O  0.22913890  0.53651163  0.12017262    -0.81800
O470        O  0.25131427  0.62595612  0.03078653    -0.82100
Eu471      Eu  0.24060854  0.55870002  0.05348579     2.39200
O472        O  0.27813779  0.50280677  0.05576061    -0.89600
O473        O  0.20378368  0.55977237  0.99714619    -0.93200
C474        C  0.25739968  0.64309134  0.99765052     1.01400
C475        C  0.22307359  0.50371358  0.13816463     1.01300
C476        C  0.14232789  0.57736307  0.06475587     1.01200
C477        C  0.33829654  0.56956233  0.07611521     0.99100
H478        H  0.18097657  0.50330612  0.07535097     0.28800
O479        O  0.19928965  0.50333057  0.05396718    -1.02000
H480        H  0.30140582  0.58099336  0.99998877     0.28800
O481        O  0.28357208  0.55910321  0.99982560    -1.04600
O482        O  0.24517816  0.37984837  0.03604564    -0.81800
O483        O  0.23925963  0.53884031  0.87666072    -0.81300
O484        O  0.12644522  0.45489452  0.03759445    -0.79800
O485        O  0.34882689  0.46083802  0.05133404    -0.83100
O486        O  0.35651673  0.54418038  0.95343095    -0.81000
O487        O  0.13531535  0.55118425  0.95244652    -0.79600
O488        O  0.18096011  0.42173340  0.92403078    -0.81100
O489        O  0.30570543  0.42819693  0.92053312    -0.83100
O490        O  0.13402792  0.45824801  0.95170333    -0.79800
O491        O  0.35166709  0.45763361  0.95721789    -0.82500
O492        O  0.17183115  0.41955083  0.06917929    -0.78200
O493        O  0.18489258  0.58662934  0.92303308    -0.78200
O494        O  0.31149146  0.57419741  0.91611760    -0.77900
O495        O  0.29951877  0.43069368  0.08575209    -0.81400
O496        O  0.24807994  0.37984867  0.97000321    -0.80800
O497        O  0.23588107  0.47225777  0.87791759    -0.79100
Eu498      Eu  0.23734849  0.44736415  0.05620635     2.39800
Eu499      Eu  0.24646303  0.55932565  0.94342692     2.39600
Eu500      Eu  0.16270768  0.50403262  0.99782527     2.38400
Eu501      Eu  0.32060465  0.50303204  0.00176904     2.39900
Eu502      Eu  0.24281511  0.44781762  0.94545173     2.39800
O503        O  0.28385492  0.50311762  0.94493298    -0.93600
O504        O  0.20079460  0.44789003  0.99955307    -0.92400
C505        C  0.24949828  0.36244157  0.00356169     1.01600
C506        C  0.23394983  0.50581613  0.86041285     1.00300
C507        C  0.13640149  0.42633438  0.05994404     0.99700
C508        C  0.33577123  0.43851127  0.07926390     1.01700
C509        C  0.34679102  0.56611467  0.92446418     1.00700
C510        C  0.14879688  0.57836739  0.92949268     0.99500
C511        C  0.14540263  0.43093228  0.92924811     0.99600
C512        C  0.34114398  0.43471949  0.92997811     1.02200
H513        H  0.18883964  0.50453658  0.92198702     0.29500
O514        O  0.20510025  0.50408107  0.94440445    -1.05700
H515        H  0.29626903  0.42547470  0.00324586     0.31600
O516        O  0.27979721  0.44776698  0.00216045    -1.08300
C517        C  0.99779092  0.69738401  0.79915789     0.85800
C518        C  0.03195489  0.67272982  0.81359062    -0.54500
C519        C  0.03605374  0.67231577  0.85297860     0.08700
C520        C  0.00580948  0.69630496  0.87431558     0.19700
C521        C  0.96302498  0.67983481  0.82159683    -0.55200
C522        C  0.96678302  0.67938806  0.86072463     0.08800
C523        C  0.00580286  0.73735233  0.81623881    -0.54700
C524        C  0.01039608  0.73721516  0.85518681     0.09400
H525        H  0.05123828  0.65637964  0.79554560     0.13900
H526        H  0.00839075  0.69557002  0.90628261    -0.00400
H527        H  0.93861689  0.66589957  0.80768993     0.14200
H528        H  0.00728407  0.76388645  0.79862355     0.14000
C529        C  0.98613248  0.31183008  0.80477495     0.85800
C530        C  0.95165368  0.33520814  0.82061210    -0.54500
C531        C  0.95353193  0.34244142  0.85935190     0.08700
C532        C  0.98969851  0.32609983  0.87881202     0.19700
C533        C  0.02182633  0.33639865  0.81608750    -0.55200
C534        C  0.02347739  0.34398579  0.85469621     0.08800
C535        C  0.98689091  0.27545413  0.83097907    -0.54700
C536        C  0.98946216  0.28272443  0.86931635     0.09400
H537        H  0.92827165  0.34650385  0.80354467     0.13900
H538        H  0.99163446  0.33174540  0.91026553    -0.00400
H539        H  0.04361756  0.34717653  0.79537111     0.14200
H540        H  0.98627972  0.24606287  0.81998452     0.14000
C541        C  0.49381512  0.70758469  0.80936688     0.85800
C542        C  0.45884039  0.68551917  0.82733018    -0.54500
C543        C  0.46140631  0.64609037  0.82646661     0.08700
C544        C  0.49901893  0.63184109  0.80724942     0.19700
C545        C  0.52858931  0.69130752  0.83169330    -0.55200
C546        C  0.53156166  0.65163249  0.83030190     0.08800
C547        C  0.49901146  0.69171231  0.76887765    -0.54700
C548        C  0.50130232  0.65239286  0.76696534     0.09400
H549        H  0.43494795  0.69991150  0.84146645     0.13900
H550        H  0.50059050  0.59968298  0.80642206    -0.00400
H551        H  0.54854076  0.70857147  0.84834621     0.14200
H552        H  0.50152532  0.71077524  0.74343613     0.14000
C553        C  0.49081181  0.70208805  0.19690920     0.85800
C554        C  0.52493710  0.69079522  0.17023015    -0.54500
C555        C  0.52635736  0.65212335  0.16296059     0.08700
C556        C  0.49349410  0.62782157  0.18226234     0.19700
C557        C  0.45516815  0.68619564  0.17526251    -0.55200
C558        C  0.45653433  0.64718918  0.16744588     0.08800
C559        C  0.49411730  0.67571553  0.23290700    -0.54700
C560        C  0.49552041  0.63715383  0.22534987     0.09400
H561        H  0.54608641  0.71105631  0.15747852     0.13900
H562        H  0.49510529  0.59616245  0.17712823    -0.00400
H563        H  0.43190310  0.70444214  0.16536029     0.14200
H564        H  0.49550545  0.68671298  0.26212976     0.14000
C565        C  0.98676573  0.31023489  0.19972851     0.85800
C566        C  0.02270484  0.32633722  0.17808230    -0.54500
C567        C  0.01981167  0.32745340  0.13864273     0.08700
C568        C  0.98010199  0.31205815  0.12440289     0.19700
C569        C  0.95397810  0.33633719  0.18482782    -0.55200
C570        C  0.95068920  0.33725141  0.14549296     0.08800
C571        C  0.97836967  0.27060394  0.18226449    -0.54700
C572        C  0.97385039  0.27096572  0.14321414     0.09400
H573        H  0.04733403  0.33844634  0.19318546     0.13900
H574        H  0.97718391  0.31327623  0.09246081    -0.00400
H575        H  0.93522762  0.35364036  0.20253804     0.14200
H576        H  0.97704404  0.24411503  0.19988036     0.14000
C577        C  0.99723229  0.70388129  0.19709495     0.85800
C578        C  0.96453179  0.67557811  0.18495629    -0.54500
C579        C  0.96369810  0.66873557  0.14625154     0.08700
C580        C  0.99607850  0.68992096  0.12296565     0.19700
C581        C  0.03396618  0.68408701  0.18168102    -0.55200
C582        C  0.03346480  0.67667479  0.14272716     0.08800
C583        C  0.99250146  0.74007026  0.17133080    -0.54700
C584        C  0.99152705  0.73278461  0.13289231     0.09400
H585        H  0.94461332  0.66047017  0.20483698     0.13900
H586        H  0.99480710  0.68479267  0.09143595    -0.00400
H587        H  0.05729731  0.67494034  0.20023320     0.14200
H588        H  0.98904226  0.76906960  0.18264981     0.14000
C589        C  0.49571383  0.31740665  0.79882928     0.85800
C590        C  0.53119295  0.33350068  0.82100551    -0.54500
C591        C  0.52887479  0.37183707  0.83065492     0.08700
C592        C  0.49093204  0.39065150  0.81796395     0.19700
C593        C  0.46136544  0.32608714  0.82599035    -0.55200
C594        C  0.45882194  0.36417945  0.83559599     0.08800
C595        C  0.49248643  0.34589040  0.76448067    -0.54700
C596        C  0.48875758  0.38376976  0.77436075     0.09400
H597        H  0.55557898  0.31677038  0.83024993     0.13900
H598        H  0.48819467  0.42164102  0.82578486    -0.00400
H599        H  0.44105552  0.30397202  0.83714533     0.14200
H600        H  0.49257385  0.33696497  0.73452292     0.14000
C601        C  0.49055862  0.31238128  0.19912079     0.85800
C602        C  0.45714432  0.32739524  0.17433224    -0.54500
C603        C  0.45475282  0.36708562  0.17231878     0.08700
C604        C  0.48637933  0.38817670  0.19522323     0.19700
C605        C  0.52678784  0.33290412  0.18129974    -0.55200
C606        C  0.52447625  0.37224967  0.17854009     0.08800
C607        C  0.48517753  0.33138078  0.23841406    -0.54700
C608        C  0.48189061  0.37073953  0.23678076     0.09400
H609        H  0.43728983  0.30815045  0.15945828     0.13900
H610        H  0.48446425  0.42025693  0.19389867    -0.00400
H611        H  0.55130604  0.31868554  0.16853419     0.14200
H612        H  0.48305064  0.31470137  0.26544659     0.14000
O613        O  0.56266772  0.42185080  0.45058347    -0.80800
O614        O  0.44816686  0.49475618  0.62318914    -0.82400
O615        O  0.58023609  0.46104034  0.57049523    -0.79400
O616        O  0.47510095  0.38770425  0.53954146    -0.77800
O617        O  0.42618596  0.39790881  0.49651809    -0.79600
O618        O  0.59745853  0.52499737  0.55978912    -0.80500
O619        O  0.49200053  0.44684815  0.61243746    -0.81800
O620        O  0.55241250  0.40313461  0.51391680    -0.82100
Eu621      Eu  0.51300403  0.45001410  0.54474195     2.39200
O622        O  0.44793108  0.46904606  0.54216014    -0.89600
O623        O  0.55127197  0.49200799  0.50514142    -0.93200
C624        C  0.56618069  0.39782143  0.47986972     1.01400
C625        C  0.46865389  0.46572330  0.63414797     1.01300
C626        C  0.60461304  0.49033107  0.57160250     1.01200
C627        C  0.44618338  0.37603290  0.51896527     0.99100
H628        H  0.51942388  0.51449724  0.59102572     0.28800
O629        O  0.50944745  0.51424687  0.56512428    -1.02000
H630        H  0.49234241  0.42061751  0.47084197     0.28800
O631        O  0.49121249  0.44664389  0.48055106    -1.04600
O632        O  0.41659738  0.59976387  0.55677253    -0.81800
O633        O  0.52565549  0.52555265  0.37995567    -0.81300
O634        O  0.53956708  0.58591188  0.59050253    -0.79800
O635        O  0.36659700  0.46801823  0.51791796    -0.83100
O636        O  0.43596626  0.44162219  0.40977351    -0.81000
O637        O  0.60839585  0.55424194  0.48663920    -0.79600
O638        O  0.49670184  0.63372418  0.45950587    -0.81100
O639        O  0.39693803  0.56125419  0.42634645    -0.83100
O640        O  0.54570541  0.62480127  0.50260653    -0.79800
O641        O  0.37891301  0.49785386  0.43867884    -0.82500
O642        O  0.47778144  0.57074643  0.61129887    -0.78200
O643        O  0.59839378  0.50916040  0.43968768    -0.78200
O644        O  0.49981311  0.45036632  0.39294611    -0.77900
O645        O  0.37774492  0.51034876  0.56718341    -0.81400
O646        O  0.42492264  0.61948817  0.49342109    -0.80800
O647        O  0.48021201  0.57198775  0.39034601    -0.79100
Eu648      Eu  0.44468300  0.53380265  0.56291736     2.39800
Eu649      Eu  0.53126507  0.48723080  0.44138429     2.39600
Eu650      Eu  0.54713872  0.55678592  0.52504055     2.38400
Eu651      Eu  0.42675918  0.46641562  0.47749488     2.39900
Eu652      Eu  0.46071727  0.57130952  0.45836927     2.39800
O653        O  0.46673391  0.50714148  0.43883387    -0.93600
O654        O  0.48252630  0.57506589  0.52229080    -0.92400
C655        C  0.41342982  0.62466240  0.52842741     1.01600
C656        C  0.50373813  0.55350587  0.36850972     1.00300
C657        C  0.51138640  0.58636925  0.61568052     0.99700
C658        C  0.35596830  0.48694827  0.54817378     1.01700
C659        C  0.46501847  0.43981064  0.38556069     1.00700
C660        C  0.61991599  0.53291830  0.45843526     0.99500
C661        C  0.52583922  0.64584658  0.47917918     0.99600
C662        C  0.37323065  0.53173368  0.42382212     1.02200
H663        H  0.54227377  0.56964268  0.44360815     0.29500
O664        O  0.52642643  0.55280740  0.46037423    -1.05700
H665        H  0.39571733  0.53973436  0.49898757     0.31600
O666        O  0.42202661  0.53080981  0.49926615    -1.08300
O667        O  0.07983912  0.93285831  0.05094206    -0.80800
O668        O  0.00006662  0.04121455  0.87570486    -0.82400
O669        O  0.04053557  0.91225851  0.92728323    -0.79400
O670        O  0.10962226  0.01847766  0.95604332    -0.77800
O671        O  0.09908854  0.07061574  0.99502463    -0.79600
O672        O  0.97801788  0.89347455  0.94050996    -0.80500
O673        O  0.05094976  0.00104395  0.88736410    -0.81800
O674        O  0.09622039  0.93992945  0.98672209    -0.82100
Eu675      Eu  0.04888832  0.97906704  0.95469971     2.39200
O676        O  0.02705105  0.04367751  0.95580589    -0.89600
O677        O  0.00988695  0.94055396  0.99678065    -0.93200
C678        C  0.10256301  0.92781487  0.02138355     1.01400
C679        C  0.03082155  0.02307319  0.86525778     1.01300
C680        C  0.01200534  0.88706896  0.92716198     1.01200
C681        C  0.12060310  0.04978019  0.97323670     0.99100
H682        H  0.98400380  0.97052626  0.90903939     0.28800
O683        O  0.98444036  0.98052445  0.93495356    -1.02000
H684        H  0.08053503  0.00337798  0.02666873     0.28800
O685        O  0.05419215  0.00348914  0.01780498    -1.04600
O686        O  0.89746914  0.07571742  0.94721988    -0.81800
O687        O  0.97797725  0.96725634  0.12108245    -0.81300
O688        O  0.91675092  0.94664664  0.91059855    -0.79800
O689        O  0.02355207  0.12723997  0.97727093    -0.83100
O690        O  0.05929151  0.06074124  0.08697255    -0.81000
O691        O  0.94994195  0.88285845  0.01929188    -0.79600
O692        O  0.86837125  0.99320109  0.03981807    -0.81100
O693        O  0.93965381  0.09631995  0.07094183    -0.83100
O694        O  0.87763074  0.94311350  0.99799548    -0.79800
O695        O  0.00178285  0.11657509  0.05670361    -0.82500
O696        O  0.91947262  0.01113696  0.89342925    -0.78200
O697        O  0.99584636  0.89656641  0.06449403    -0.78200
O698        O  0.05335614  0.99702029  0.10656400    -0.77900
O699        O  0.98082410  0.11182209  0.92964142    -0.81400
O700        O  0.88201431  0.06756026  0.01152432    -0.80800
O701        O  0.92820980  0.00892199  0.11034015    -0.79100
Eu702      Eu  0.96166332  0.04441747  0.93689460     2.39800
Eu703      Eu  0.01561760  0.96393465  0.05956219     2.39600
Eu704      Eu  0.94511974  0.94202103  0.97707746     2.38400
Eu705      Eu  0.03244771  0.06763469  0.01918584     2.39900
Eu706      Eu  0.93011206  0.02995867  0.04286438     2.39800
O707        O  0.99458243  0.02823936  0.06160194    -0.93600
O708        O  0.92387275  0.00600164  0.97982870    -0.92400
C709        C  0.87524879  0.08035974  0.97729585     1.01600
C710        C  0.94808794  0.98637921  0.13211586     1.00300
C711        C  0.91149543  0.97541940  0.88644627     0.99700
C712        C  0.00205177  0.13609843  0.94796988     1.01700
C713        C  0.06330749  0.03249866  0.11226273     1.00700
C714        C  0.97238374  0.87338575  0.04751739     0.99500
C715        C  0.85655877  0.96370139  0.02039705     0.99600
C716        C  0.96782967  0.12192449  0.07080013     1.02200
H717        H  0.93427991  0.94874203  0.05849390     0.29500
O718        O  0.95019445  0.96484442  0.04103668    -1.05700
H719        H  0.95753410  0.09435566  0.99935421     0.31600
O720        O  0.96752228  0.06834972  0.99949317    -1.08300
C721        C  0.44442945  0.37682905  0.29910143    -0.27000
C722        C  0.47183679  0.39281774  0.27212649    -0.15100
C723        C  0.49087049  0.42807238  0.28056305     0.35500
C724        C  0.48432481  0.44487096  0.31660545    -0.26500
C725        C  0.46030622  0.42662935  0.34524298    -0.15700
C726        C  0.43833974  0.39354279  0.33559704     0.36600
N727        N  0.41169474  0.37593599  0.36335104    -0.90000
H728        H  0.42858519  0.35046132  0.29212494     0.17700
H729        H  0.50035876  0.47118422  0.32344552     0.17700
N730        N  0.51872971  0.44540024  0.25381366    -0.89000
H731        H  0.39862235  0.35107734  0.35198492     0.35100
H732        H  0.38954769  0.39566207  0.36793327     0.40200
H733        H  0.54203644  0.42661300  0.25215274     0.39800
H734        H  0.52968538  0.47166811  0.26425557     0.34700
C735        C  0.44490080  0.40621647  0.72345351    -0.27000
C736        C  0.47837253  0.41326282  0.74498929    -0.15100
C737        C  0.50439014  0.44345806  0.73348851     0.35500
C738        C  0.49844949  0.46326800  0.69816840    -0.26500
C739        C  0.46701453  0.45334466  0.67484033    -0.15700
C740        C  0.43917739  0.42571629  0.68829421     0.36600
N741        N  0.40646930  0.41501312  0.66555809    -0.90000
H742        H  0.42470906  0.38316155  0.73251933     0.17700
H743        H  0.51976860  0.48457449  0.68748703     0.17700
N744        N  0.53822818  0.45155872  0.75584652    -0.89000
H745        H  0.41649270  0.40454027  0.63913853     0.35100
H746        H  0.39058899  0.44000537  0.65998648     0.40200
H747        H  0.52894479  0.46256003  0.78229768     0.39800
H748        H  0.55519256  0.47357237  0.74236594     0.34700
C749        C  0.01523999  0.78076817  0.08388238    -0.27000
C750        C  0.98393353  0.76379675  0.10426406    -0.15100
C751        C  0.94678779  0.77979389  0.10115407     0.35500
C752        C  0.94217997  0.81442899  0.07939844    -0.26500
C753        C  0.97423574  0.83281537  0.06119953    -0.15700
C754        C  0.01071146  0.81517020  0.06244828     0.36600
N755        N  0.04359862  0.83318536  0.04309870    -0.90000
H756        H  0.04378163  0.76867524  0.08655096     0.17700
H757        H  0.91433210  0.82830748  0.07874101     0.17700
N758        N  0.91447684  0.76173879  0.12161832    -0.89000
H759        H  0.05478900  0.81333564  0.02357239     0.35100
H760        H  0.06470966  0.83884730  0.06371811     0.40200
H761        H  0.90991938  0.73425120  0.10993616     0.39800
H762        H  0.88930894  0.77733719  0.11672614     0.34700
C763        C  0.94201944  0.16655833  0.12100803    -0.27000
C764        C  0.96203272  0.16129792  0.08613818    -0.15100
C765        C  0.98022471  0.19387928  0.06733390     0.35500
C766        C  0.98184059  0.22981120  0.08547075    -0.26500
C767        C  0.96499259  0.23448064  0.12200709    -0.15700
C768        C  0.94260853  0.20308194  0.13885213     0.36600
N769        N  0.92071502  0.20823093  0.17399391    -0.90000
H770        H  0.92714534  0.14193408  0.13500809     0.17700
H771        H  0.99817337  0.25350202  0.07153522     0.17700
N772        N  0.99782573  0.19044070  0.02981672    -0.89000
H773        H  0.90619524  0.18242071  0.18249352     0.35100
H774        H  0.89951863  0.22867924  0.16809344     0.40200
H775        H  0.02709056  0.19832863  0.03173046     0.39800
H776        H  0.98478345  0.21026854  0.01102195     0.34700
C777        C  0.46928797  0.56788054  0.30789310    -0.27000
C778        C  0.50460961  0.56620523  0.32745743    -0.15100
C779        C  0.53821782  0.58302859  0.31008801     0.35500
C780        C  0.53520786  0.60378635  0.27473794    -0.26500
C781        C  0.49933443  0.60776906  0.25674590    -0.15700
C782        C  0.46636568  0.58839340  0.27250044     0.36600
N783        N  0.42964505  0.59194065  0.25388588    -0.90000
H784        H  0.44350212  0.55486531  0.32137295     0.17700
H785        H  0.56041618  0.61885699  0.26232256     0.17700
N786        N  0.57464097  0.58104885  0.32948626    -0.89000
H787        H  0.40802769  0.57671981  0.26973833     0.35100
H788        H  0.43177834  0.57850802  0.22708595     0.40200
H789        H  0.57228218  0.59669177  0.35501633     0.39800
H790        H  0.59650524  0.59484945  0.31273618     0.34700
C791        C  0.48580929  0.65053144  0.69726970    -0.27000
C792        C  0.50573447  0.63396050  0.72851169    -0.15100
C793        C  0.53146552  0.60338771  0.72139851     0.35500
C794        C  0.53561364  0.58947130  0.68330587    -0.26500
C795        C  0.51556806  0.60664100  0.65241928    -0.15700
C796        C  0.49102075  0.63787009  0.65971359     0.36600
N797        N  0.47052782  0.65710131  0.62930159    -0.90000
H798        H  0.46560398  0.67370364  0.70197744     0.17700
H799        H  0.55350681  0.56459276  0.67790062     0.17700
N800        N  0.55326237  0.58679963  0.75250296    -0.89000
H801        H  0.45117335  0.63741449  0.61698212     0.35100
H802        H  0.49060759  0.66666686  0.60808943     0.40200
H803        H  0.57209928  0.60847424  0.76235341     0.39800
H804        H  0.57055074  0.56445664  0.74241982     0.34700
C805        C  0.03165551  0.20119798  0.92925510    -0.27000
C806        C  0.99877651  0.17703873  0.93460857    -0.15100
C807        C  0.96218577  0.19106030  0.92371531     0.35500
C808        C  0.95945182  0.22741195  0.90532555    -0.26500
C809        C  0.99248129  0.25039275  0.89767729    -0.15700
C810        C  0.02881157  0.23788187  0.91053884     0.36600
N811        N  0.06283440  0.26141985  0.90235351    -0.90000
H812        H  0.05967818  0.19060818  0.93763385     0.17700
H813        H  0.93157353  0.23690511  0.89519502     0.17700
N814        N  0.92766307  0.16798908  0.93053216    -0.89000
H815        H  0.08741686  0.24769871  0.91276775     0.35100
H816        H  0.06014660  0.28705785  0.91780964     0.40200
H817        H  0.91471303  0.16305688  0.90386054     0.39800
H818        H  0.90860599  0.18413966  0.94722404     0.34700
C819        C  0.04145410  0.84103657  0.87968531    -0.27000
C820        C  0.01711119  0.84727165  0.91173845    -0.15100
C821        C  0.99554832  0.81489003  0.92785663     0.35500
C822        C  0.99599157  0.77905273  0.91011595    -0.26500
C823        C  0.01731014  0.77376000  0.87634035    -0.15700
C824        C  0.04197056  0.80438394  0.86189332     0.36600
N825        N  0.06715746  0.79819731  0.82922632    -0.90000
H826        H  0.05893843  0.86498215  0.86770502     0.17700
H827        H  0.97767861  0.75563834  0.92194824     0.17700
N828        N  0.97320266  0.81689003  0.96285007    -0.89000
H829        H  0.08672576  0.77684452  0.83736713     0.35100
H830        H  0.08351587  0.82338061  0.82245087     0.40200
H831        H  0.94875391  0.83355164  0.95818120     0.39800
H832        H  0.99072311  0.82930136  0.98372609     0.34700
C833        C  0.07733093  0.42272685  0.90842268    -0.27000
C834        C  0.11526051  0.40891226  0.90800899    -0.15100
C835        C  0.12313930  0.37460729  0.88744517     0.35500
C836        C  0.09286713  0.35435246  0.86953710    -0.26500
C837        C  0.05486286  0.36748486  0.87176675    -0.15700
C838        C  0.04737641  0.40262137  0.89058531     0.36600
N839        N  0.00989303  0.41938737  0.89114996    -0.90000
H840        H  0.07057662  0.44950206  0.92281398     0.17700
H841        H  0.09895669  0.32774405  0.85451407     0.17700
N842        N  0.16151000  0.35982685  0.88488462    -0.89000
H843        H  0.99103353  0.40091121  0.90694972     0.35100
H844        H  0.00049433  0.42219442  0.86263650     0.40200
H845        H  0.16930042  0.35843485  0.85559049     0.39800
H846        H  0.16105092  0.33152707  0.89655216     0.34700
C847        C  0.11664949  0.37013117  0.10335695    -0.27000
C848        C  0.10562843  0.39904966  0.07652294    -0.15100
C849        C  0.06595022  0.40060687  0.06635623     0.35500
C850        C  0.03851062  0.37568480  0.08563251    -0.26500
C851        C  0.04974766  0.34846090  0.11396552    -0.15700
C852        C  0.08946983  0.34482573  0.12153630     0.36600
N853        N  0.10251717  0.31527506  0.14780264    -0.90000
H854        H  0.14675299  0.36711106  0.11089533     0.17700
H855        H  0.00806925  0.37845744  0.07937381     0.17700
N856        N  0.05338952  0.42744701  0.03689571    -0.89000
H857        H  0.11780370  0.32882860  0.16985877     0.35100
H858        H  0.12171335  0.29773000  0.13278073     0.40200
H859        H  0.02336562  0.42556436  0.03387365     0.39800
H860        H  0.06533840  0.41876449  0.01054215     0.34700
C861        C  0.07603782  0.61842309  0.14180596    -0.27000
C862        C  0.06253078  0.65203891  0.12287820    -0.15100
C863        C  0.07537983  0.66045977  0.08460010     0.35500
C864        C  0.09997679  0.63473744  0.06555087    -0.26500
C865        C  0.11324763  0.60124600  0.08444428    -0.15700
C866        C  0.10194052  0.59343646  0.12326614     0.36600
N867        N  0.11674988  0.56016907  0.14363663    -0.90000
H868        H  0.06622145  0.61146179  0.17109309     0.17700
H869        H  0.10977858  0.64163862  0.03621446     0.17700
N870        N  0.06491010  0.69592864  0.06546297    -0.89000
H871        H  0.10532226  0.55830354  0.17181861     0.35100
H872        H  0.14658745  0.56455699  0.14634190     0.40200
H873        H  0.05112702  0.68894708  0.03971171     0.39800
H874        H  0.09032527  0.71161453  0.05830493     0.34700
C875        C  0.11473940  0.63989684  0.92142880    -0.27000
C876        C  0.12053791  0.60187935  0.90912047    -0.15100
C877        C  0.09841131  0.58680777  0.87858330     0.35500
C878        C  0.07136952  0.61059134  0.86069993    -0.26500
C879        C  0.06542782  0.64873843  0.87288353    -0.15700
C880        C  0.08699428  0.66330173  0.90393519     0.36600
N881        N  0.08126431  0.70186045  0.91751812    -0.90000
H882        H  0.13144201  0.65125518  0.94516122     0.17700
H883        H  0.05423659  0.59878215  0.83752578     0.17700
N884        N  0.10227740  0.54772114  0.86511244    -0.89000
H885        H  0.10760640  0.71723712  0.91522300     0.35100
H886        H  0.07337436  0.69979454  0.94684764     0.40200
H887        H  0.12313885  0.53242316  0.88030517     0.39800
H888        H  0.11196360  0.54950773  0.83631047     0.34700
C889        C  0.36233854  0.40127109  0.87011584    -0.27000
C890        C  0.37155103  0.41492026  0.90718469    -0.15100
C891        C  0.40953436  0.40921570  0.92107968     0.35500
C892        C  0.43667082  0.39060115  0.89798302    -0.26500
C893        C  0.42780084  0.37903371  0.86057950    -0.15700
C894        C  0.39028431  0.38392811  0.84663817     0.36600
N895        N  0.38078632  0.37213291  0.80834336    -0.90000
H896        H  0.33363066  0.40509852  0.85864879     0.17700
H897        H  0.46501773  0.38520194  0.90942246     0.17700
N898        N  0.42168074  0.42159332  0.95841137    -0.89000
H899        H  0.37132711  0.39652409  0.79289938     0.35100
H900        H  0.35779268  0.35196382  0.81050105     0.40200
H901        H  0.40294721  0.40939336  0.97956893     0.39800
H902        H  0.42104191  0.45192449  0.95922310     0.34700
C903        C  0.44305403  0.60992068  0.88694124    -0.27000
C904        C  0.43368996  0.62095056  0.84901844    -0.15100
C905        C  0.39633226  0.61244939  0.83537168     0.35500
C906        C  0.36898303  0.59360340  0.85998954    -0.26500
C907        C  0.37788529  0.58325403  0.89852171    -0.15700
C908        C  0.41579331  0.59086985  0.91162803     0.36600
N909        N  0.42641525  0.58091598  0.95044247    -0.90000
H910        H  0.47115024  0.61777888  0.89816658     0.17700
H911        H  0.34032006  0.58761026  0.84901726     0.17700
N912        N  0.38527191  0.62336529  0.79691373    -0.89000
H913        H  0.43523007  0.60640009  0.96407188     0.35100
H914        H  0.45013429  0.56257473  0.94909396     0.40200
H915        H  0.40440205  0.61068495  0.77739188     0.39800
H916        H  0.38814404  0.65357661  0.79372006     0.34700
C917        C  0.38723109  0.63453870  0.15099471    -0.27000
C918        C  0.42638864  0.62640358  0.14466395    -0.15100
C919        C  0.43612248  0.59895187  0.11647868     0.35500
C920        C  0.40696898  0.58048557  0.09539025    -0.26500
C921        C  0.36770413  0.58887918  0.10111295    -0.15700
C922        C  0.35777208  0.61600979  0.12998234     0.36600
N923        N  0.31804364  0.62496783  0.13804933    -0.90000
H924        H  0.37947344  0.65511051  0.17298904     0.17700
H925        H  0.41552162  0.55981250  0.07378970     0.17700
N926        N  0.47566902  0.59059699  0.10782885    -0.89000
H927        H  0.31612326  0.64719252  0.15814501     0.35100
H928        H  0.30505558  0.60032009  0.15132467     0.40200
H929        H  0.48089663  0.59670922  0.07842793     0.39800
H930        H  0.47955537  0.56082034  0.11259726     0.34700
C931        C  0.40266560  0.43720904  0.10515136    -0.27000
C932        C  0.36488531  0.42118093  0.10561227    -0.15100
C933        C  0.35631097  0.38890069  0.13065192     0.35500
C934        C  0.38615068  0.37198257  0.15202392    -0.26500
C935        C  0.42410286  0.38723485  0.15028075    -0.15700
C936        C  0.43204490  0.42087356  0.12730009     0.36600
N937        N  0.47006533  0.43810742  0.12520133    -0.90000
H938        H  0.40980247  0.46261441  0.08718135     0.17700
H939        H  0.37958063  0.34693261  0.17067002     0.17700
N940        N  0.31764766  0.37301733  0.13425700    -0.89000
H941        H  0.47917054  0.43902309  0.09620526     0.35100
H942        H  0.46830928  0.46677861  0.13446364     0.40200
H943        H  0.30100351  0.39329423  0.14881885     0.39800
H944        H  0.31701544  0.34789010  0.15182761     0.34700
C945        C  0.58385833  0.41364053  0.16860776    -0.27000
C946        C  0.55199998  0.39433582  0.15269423    -0.15100
C947        C  0.54954161  0.39135117  0.11201824     0.35500
C948        C  0.57827379  0.40914764  0.08807609    -0.26500
C949        C  0.61056390  0.42773071  0.10399696    -0.15700
C950        C  0.61341472  0.43010938  0.14466761     0.36600
N951        N  0.64645327  0.44899105  0.16145330    -0.90000
H952        H  0.58637702  0.41464979  0.19976310     0.17700
H953        H  0.57632266  0.40712499  0.05689525     0.17700
N954        N  0.51815425  0.36977791  0.09519116    -0.89000
H955        H  0.64405275  0.44846458  0.19166242     0.35100
H956        H  0.64648146  0.47821394  0.15262750     0.40200
H957        H  0.52149814  0.34040484  0.10241597     0.39800
H958        H  0.51972768  0.37183328  0.06497280     0.34700
C959        C  0.59217517  0.62484409  0.07929933    -0.27000
C960        C  0.61622821  0.59809424  0.09774712    -0.15100
C961        C  0.61106921  0.58992826  0.13793763     0.35500
C962        C  0.58158764  0.60833058  0.15826736    -0.26500
C963        C  0.55758192  0.63493374  0.13983048    -0.15700
C964        C  0.56324567  0.64370468  0.09998283     0.36600
N965        N  0.53960363  0.67082602  0.07962969    -0.90000
H966        H  0.59614772  0.63134052  0.04863975     0.17700
H967        H  0.57732517  0.60170790  0.18886926     0.17700
N968        N  0.63442936  0.56285219  0.15904317    -0.89000
H969        H  0.54360898  0.69828799  0.09142038     0.35100
H970        H  0.51060702  0.66233044  0.08350328     0.40200
H971        H  0.65476906  0.54971112  0.14132812     0.39800
H972        H  0.61607096  0.54050281  0.16977657     0.34700
C973        C  0.55205527  0.59625883  0.87256655    -0.27000
C974        C  0.56219431  0.62997366  0.85099538    -0.15100
C975        C  0.60106261  0.64333939  0.85050967     0.35500
C976        C  0.62811120  0.62468632  0.87414848    -0.26500
C977        C  0.61745736  0.59250610  0.89807207    -0.15700
C978        C  0.57906517  0.57735694  0.89609410     0.36600
N979        N  0.56750146  0.54278705  0.91769959    -0.90000
H980        H  0.52272092  0.58486735  0.87167551     0.17700
H981        H  0.65759937  0.63590195  0.87429577     0.17700
N982        N  0.61300650  0.67568227  0.82582497    -0.89000
H983        H  0.58282905  0.51973093  0.90614941     0.35100
H984        H  0.53817092  0.53622404  0.91379403     0.40200
H985        H  0.60901481  0.66742368  0.79717622     0.39800
H986        H  0.64254905  0.68180456  0.82872522     0.34700
C987        C  0.62579764  0.40371571  0.87247643    -0.27000
C988        C  0.61401486  0.42485802  0.90499858    -0.15100
C989        C  0.57380930  0.42965159  0.91165388     0.35500
C990        C  0.54709012  0.41435089  0.88540909    -0.26500
C991        C  0.55885630  0.39193078  0.85415041    -0.15700
C992        C  0.59879153  0.38730952  0.84709468     0.36600
N993        N  0.61184852  0.36678923  0.81365453    -0.90000
H994        H  0.65632648  0.40019372  0.86640666     0.17700
H995        H  0.51670809  0.41905585  0.89023046     0.17700
N996        N  0.55989389  0.44940746  0.94523632    -0.89000
H997        H  0.64205444  0.36605361  0.81251617     0.35100
H998        H  0.60327436  0.38249907  0.78911521     0.40200
H999        H  0.56634417  0.43219246  0.96950365     0.39800
H1000       H  0.52976737  0.45148992  0.94496534     0.34700
C1001       C  0.92280208  0.40230010  0.13303090    -0.27000
C1002       C  0.92273131  0.36238824  0.12544706    -0.15100
C1003       C  0.89549314  0.34688467  0.09990224     0.35500
C1004       C  0.86824793  0.37136279  0.08287185    -0.26500
C1005       C  0.86819887  0.41133942  0.09043285    -0.15700
C1006       C  0.89595678  0.42707793  0.11587881     0.36600
N1007       N  0.89751047  0.46757651  0.12557305    -0.90000
H1008       H  0.94391000  0.41432952  0.15261382     0.17700
H1009       H  0.84716355  0.35912870  0.06338244     0.17700
N1010       N  0.89485248  0.30617632  0.09194115    -0.89000
H1011       H  0.89250953  0.46932784  0.15540353     0.35100
H1012       H  0.87558469  0.48323143  0.11245348     0.40200
H1013       H  0.89850777  0.30304081  0.06208124     0.39800
H1014       H  0.86757751  0.29473179  0.09989080     0.34700
C1015       C  0.87963254  0.37866580  0.93202013    -0.27000
C1016       C  0.87220781  0.41580806  0.91676366    -0.15100
C1017       C  0.89293164  0.42977034  0.88374355     0.35500
C1018       C  0.91821862  0.40475103  0.86457211    -0.26500
C1019       C  0.92531166  0.36727646  0.87953593    -0.15700
C1020       C  0.90683331  0.35477359  0.91428410     0.36600
N1021       N  0.91515736  0.31762695  0.93130401    -0.90000
H1022       H  0.86452272  0.36834396  0.95808129     0.17700
H1023       H  0.93347952  0.41494371  0.83857468     0.17700
N1024       N  0.88927540  0.46947850  0.87065408    -0.89000
H1025       H  0.88932208  0.30139589  0.93369428     0.35100
H1026       H  0.92536112  0.32212064  0.95924136     0.40200
H1027       H  0.86093096  0.47346894  0.86170136     0.39800
H1028       H  0.90717114  0.47527016  0.84647126     0.34700
C1029       C  0.89866394  0.67007687  0.88265319    -0.27000
C1030       C  0.93726538  0.65906230  0.88574360    -0.15100
C1031       C  0.94601218  0.62546318  0.90748970     0.35500
C1032       C  0.91594333  0.60269436  0.92463121    -0.26500
C1033       C  0.87686399  0.61277118  0.92046874    -0.15700
C1034       C  0.86840322  0.64778887  0.90005646     0.36600
N1035       N  0.82926363  0.66067980  0.89663311    -0.90000
H1036       H  0.89208387  0.69596277  0.86578011     0.17700
H1037       H  0.92335687  0.57637988  0.94036727     0.17700
N1038       N  0.98518682  0.61320201  0.91055648    -0.89000
H1039       H  0.82813809  0.68599411  0.87944300     0.35100
H1040       H  0.81966661  0.66820528  0.92427821     0.40200
H1041       H  0.98705660  0.58540331  0.89906892     0.39800
H1042       H  0.99194112  0.61126805  0.93992057     0.34700
C1043       C  0.91255771  0.59612928  0.08246011    -0.27000
C1044       C  0.87367936  0.60028252  0.09408341    -0.15100
C1045       C  0.86505595  0.62528837  0.12501625     0.35500
C1046       C  0.89494510  0.64742311  0.14129051    -0.26500
C1047       C  0.93344335  0.64399797  0.12871311    -0.15700
C1048       C  0.94237924  0.61730548  0.09980797     0.36600
N1049       N  0.98173942  0.61081097  0.08862736    -0.90000
H1050       H  0.92009068  0.57648902  0.05954995     0.17700
H1051       H  0.88807491  0.66769378  0.16385943     0.17700
N1052       N  0.82623886  0.62805012  0.14011244    -0.89000
H1053       H  0.98471162  0.61658278  0.05889066     0.35100
H1054       H  0.98753925  0.58144495  0.09369128     0.40200
H1055       H  0.82495215  0.64833920  0.16219845     0.39800
H1056       H  0.81864462  0.60108472  0.15289116     0.34700
C1057       C  0.07496572  0.05467558  0.81756056    -0.27000
C1058       C  0.04545109  0.02707197  0.82527266    -0.15100
C1059       C  0.03823412  0.99739571  0.79852315     0.35500
C1060       C  0.06182442  0.99511431  0.76513928    -0.26500
C1061       C  0.09372860  0.02045696  0.75947401    -0.15700
C1062       C  0.09933900  0.05146993  0.78509110     0.36600
N1063       N  0.13038652  0.07919376  0.77877728    -0.90000
H1064       H  0.08099677  0.07710343  0.83836542     0.17700
H1065       H  0.05724844  0.97159607  0.74521220     0.17700
N1066       N  0.00855514  0.96836724  0.80652923    -0.89000
H1067       H  0.14812193  0.07841063  0.80303307     0.35100
H1068       H  0.11857395  0.10688222  0.77672901     0.40200
H1069       H  0.01672556  0.95211145  0.83085998     0.39800
H1070       H  0.00655827  0.94894240  0.78372714     0.34700
C1071       C  0.05808907  0.01778738  0.18231708    -0.27000
C1072       C  0.07749206  0.03915459  0.15230796    -0.15100
C1073       C  0.11175268  0.05996727  0.16147302     0.35500
C1074       C  0.12613592  0.05708438  0.19940606    -0.26500
C1075       C  0.10845436  0.03281160  0.22846240    -0.15700
C1076       C  0.07297415  0.01407272  0.21960674     0.36600
N1077       N  0.05227468  0.98895708  0.24654241    -0.90000
H1078       H  0.03162252  0.00179695  0.17615883     0.17700
H1079       H  0.15278351  0.07268600  0.20561645     0.17700
N1080       N  0.13396328  0.08254572  0.13324264    -0.89000
H1081       H  0.04035196  0.00560217  0.26842063     0.35100
H1082       H  0.07117183  0.96866196  0.25806625     0.40200
H1083       H  0.12152182  0.08225346  0.10601912     0.39800
H1084       H  0.16088997  0.06954830  0.13021613     0.34700
C1085       C  0.17825676  0.47804737  0.23700936    -0.27000
C1086       C  0.18429386  0.51292193  0.25697443    -0.15100
C1087       C  0.20200612  0.54488789  0.23663155     0.35500
C1088       C  0.21459227  0.54092428  0.19837493    -0.26500
C1089       C  0.21006705  0.50562690  0.17913287    -0.15700
C1090       C  0.19068084  0.47423524  0.19850477     0.36600
N1091       N  0.18340890  0.43828905  0.17939383    -0.90000
H1092       H  0.16565268  0.45254723  0.25121059     0.17700
H1093       H  0.22875125  0.56574592  0.18398218     0.17700
N1094       N  0.20907667  0.58111387  0.25532761    -0.89000
H1095       H  0.15353954  0.43285364  0.17970336     0.35100
H1096       H  0.19640303  0.41601479  0.19526290     0.40200
H1097       H  0.19530644  0.60298661  0.23958907     0.39800
H1098       H  0.23883627  0.58714303  0.25438316     0.34700
C1099       C  0.32818527  0.50258552  0.37869794    -0.27000
C1100       C  0.33662248  0.53429941  0.40230486    -0.15100
C1101       C  0.30676360  0.56065816  0.41099279     0.35500
C1102       C  0.26906720  0.55291021  0.39794344    -0.26500
C1103       C  0.26077503  0.52042631  0.37544879    -0.15700
C1104       C  0.29083581  0.49515759  0.36548706     0.36600
N1105       N  0.28325713  0.46175873  0.34216007    -0.90000
H1106       H  0.35078109  0.48224898  0.37197059     0.17700
H1107       H  0.24632976  0.57313060  0.40439047     0.17700
N1108       N  0.31300884  0.59489521  0.43330153    -0.89000
H1109       H  0.30867617  0.44670201  0.33671515     0.35100
H1110       H  0.26505329  0.44280203  0.35824672     0.40200
H1111       H  0.34201018  0.59865572  0.44012034     0.39800
H1112       H  0.30614851  0.61889407  0.41582569     0.34700
C1113       C  0.78383751  0.47238111  0.24351529    -0.27000
C1114       C  0.77700650  0.50479868  0.26673360    -0.15100
C1115       C  0.75928630  0.53739577  0.24897549     0.35500
C1116       C  0.75065037  0.53760669  0.20922382    -0.26500
C1117       C  0.75862834  0.50564128  0.18599886    -0.15700
C1118       C  0.77533291  0.47249528  0.20370985     0.36600
N1119       N  0.78472268  0.43917349  0.18114307    -0.90000
H1120       H  0.79623236  0.44653246  0.25568899     0.17700
H1121       H  0.73749984  0.56310088  0.19652009     0.17700
N1122       N  0.74989005  0.57064332  0.27132286    -0.89000
H1123       H  0.79554473  0.41683895  0.19859335     0.35100
H1124       H  0.80711635  0.44761668  0.16190742     0.40200
H1125       H  0.76419013  0.59497702  0.25885341     0.39800
H1126       H  0.72011252  0.57491621  0.26947879     0.34700
C1127       C  0.71717354  0.49483107  0.43029779    -0.27000
C1128       C  0.72919989  0.52311954  0.40285151    -0.15100
C1129       C  0.70887983  0.55810471  0.39962192     0.35500
C1130       C  0.67502120  0.56307271  0.42179538    -0.26500
C1131       C  0.66100652  0.53327013  0.44679787    -0.15700
C1132       C  0.68304561  0.49921705  0.45204385     0.36600
N1133       N  0.67076206  0.46779448  0.47780505    -0.90000
H1134       H  0.73295431  0.46802143  0.43300817     0.17700
H1135       H  0.65810509  0.58891081  0.41718247     0.17700
N1136       N  0.72181670  0.58792806  0.37264120    -0.89000
H1137       H  0.66393392  0.44378878  0.46093441     0.35100
H1138       H  0.64579057  0.47440977  0.49345270     0.40200
H1139       H  0.72674293  0.61338578  0.38799778     0.39800
H1140       H  0.69956480  0.59304751  0.35312862     0.34700
C1141       C  0.85723539  0.94961452  0.79461825    -0.27000
C1142       C  0.87515949  0.97665002  0.76829794    -0.15100
C1143       C  0.90875392  0.99673827  0.77985056     0.35500
C1144       C  0.92109183  0.99233686  0.81782430    -0.26500
C1145       C  0.90047467  0.96916106  0.84564872    -0.15700
C1146       C  0.86874976  0.94622419  0.83340406     0.36600
N1147       N  0.84603246  0.92140248  0.85929329    -0.90000
H1148       H  0.83181981  0.93328292  0.78580863     0.17700
H1149       H  0.94594761  0.00962773  0.82640048     0.17700
N1150       N  0.92940536  0.02407195  0.75502757    -0.89000
H1151       H  0.81807254  0.93240122  0.86047799     0.35100
H1152       H  0.85631006  0.92186847  0.88745026     0.40200
H1153       H  0.91028224  0.04485751  0.74466634     0.39800
H1154       H  0.94150016  0.00922106  0.73192694     0.34700
C1155       C  0.88212599  0.96292871  0.21634804    -0.27000
C1156       C  0.89022371  0.99462293  0.24013922    -0.15100
C1157       C  0.92254718  0.01890150  0.23162396     0.35500
C1158       C  0.94440654  0.01304521  0.19773232    -0.26500
C1159       C  0.93447206  0.98311142  0.17247935    -0.15700
C1160       C  0.90392067  0.95701353  0.18244312     0.36600
N1161       N  0.89343412  0.92646563  0.15658152    -0.90000
H1162       H  0.85751628  0.94391161  0.22329239     0.17700
H1163       H  0.96728640  0.03375967  0.18962211     0.17700
N1164       N  0.93144852  0.05119805  0.25566636    -0.89000
H1165       H  0.86968581  0.91032264  0.16768399     0.35100
H1166       H  0.91659489  0.90744345  0.15522535     0.40200
H1167       H  0.93026538  0.07665967  0.23870167     0.39800
H1168       H  0.95984350  0.04832822  0.26515351     0.34700
C1169       C  0.17862974  0.48564763  0.76883989    -0.27000
C1170       C  0.19518729  0.51285373  0.74185551    -0.15100
C1171       C  0.22357569  0.53976453  0.75597396     0.35500
C1172       C  0.23604051  0.53629523  0.79435654    -0.26500
C1173       C  0.22145705  0.50704690  0.81961600    -0.15700
C1174       C  0.19143850  0.48235780  0.80706904     0.36600
N1175       N  0.17300056  0.45476690  0.83360814    -0.90000
H1176       H  0.15512832  0.46662490  0.76121893     0.17700
H1177       H  0.25779012  0.55668680  0.80446061     0.17700
N1178       N  0.24084929  0.57102026  0.73288348    -0.89000
H1179       H  0.15194930  0.43805217  0.81977853     0.35100
H1180       H  0.15841183  0.47061944  0.85456335     0.40200
H1181       H  0.23023348  0.57286164  0.70497513     0.39800
H1182       H  0.27043249  0.56579248  0.73017797     0.34700
C1183       C  0.25407611  0.51423261  0.57357280    -0.27000
C1184       C  0.24808925  0.49227396  0.60789333    -0.15100
C1185       C  0.27444209  0.46274024  0.61736675     0.35500
C1186       C  0.30826817  0.45873485  0.59504859    -0.26500
C1187       C  0.31585570  0.48299896  0.56274569    -0.15700
C1188       C  0.28790119  0.50989208  0.55087454     0.36600
N1189       N  0.29529296  0.53439423  0.51727497    -0.90000
H1190       H  0.23363496  0.53643116  0.56579178     0.17700
H1191       H  0.32968157  0.43801462  0.60423728     0.17700
N1192       N  0.26729177  0.43715761  0.65005785    -0.89000
H1193       H  0.27226778  0.55310580  0.51271903     0.35100
H1194       H  0.29658458  0.51642985  0.49325411     0.40200
H1195       H  0.26649703  0.40861673  0.64021529     0.39800
H1196       H  0.29057539  0.43987868  0.66886225     0.34700
C1197       C  0.79450048  0.47228184  0.76613563    -0.27000
C1198       C  0.78951884  0.50512447  0.74208193    -0.15100
C1199       C  0.77362064  0.53878857  0.75864517     0.35500
C1200       C  0.76408147  0.53918484  0.79814189    -0.26500
C1201       C  0.76832231  0.50611548  0.82188471    -0.15700
C1202       C  0.78353891  0.47201294  0.80516629     0.36600
N1203       N  0.78760652  0.43607739  0.82635190    -0.90000
H1204       H  0.80473592  0.44538211  0.75468670     0.17700
H1205       H  0.75212196  0.56538100  0.80995169     0.17700
N1206       N  0.76585863  0.57247289  0.73514611    -0.89000
H1207       H  0.76025755  0.42553184  0.83515815     0.35100
H1208       H  0.80483666  0.44063320  0.85042293     0.40200
H1209       H  0.73630128  0.57803611  0.73730827     0.39800
H1210       H  0.78107541  0.59616996  0.74637790     0.34700
C1211       C  0.69054881  0.46768011  0.63519264    -0.27000
C1212       C  0.71906888  0.49332194  0.61871430    -0.15100
C1213       C  0.71102420  0.51288951  0.58381452     0.35500
C1214       C  0.67423394  0.50885700  0.56772406    -0.26500
C1215       C  0.64468778  0.48569993  0.58577422    -0.15700
C1216       C  0.65348820  0.46361475  0.61906505     0.36600
N1217       N  0.62437451  0.43903456  0.63762766    -0.90000
H1218       H  0.69689082  0.45134158  0.66138998     0.17700
H1219       H  0.66818989  0.52560596  0.54167260     0.17700
N1220       N  0.73919352  0.53861535  0.56564917    -0.89000
H1221       H  0.63508993  0.42622802  0.66288781     0.35100
H1222       H  0.61826438  0.41626804  0.61894890     0.40200
H1223       H  0.72746805  0.56634989  0.56363664     0.39800
H1224       H  0.74428527  0.52902284  0.53753643     0.34700
C1225       C  0.96657634  0.32215115  0.27011705    -0.27000
C1226       C  0.99241357  0.30586108  0.24340119    -0.15100
C1227       C  0.02228322  0.28209341  0.25792834     0.35500
C1228       C  0.02436462  0.27367116  0.29770824    -0.26500
C1229       C  0.99687190  0.28801117  0.32351317    -0.15700
C1230       C  0.96864679  0.31354115  0.30971440     0.36600
N1231       N  0.94205760  0.33116445  0.33597947    -0.90000
H1232       H  0.94373248  0.34091932  0.26115211     0.17700
H1233       H  0.04666082  0.25459623  0.30820175     0.17700
N1234       N  0.04984976  0.26528633  0.23214558    -0.89000
H1235       H  0.94529848  0.36136987  0.33295598     0.35100
H1236       H  0.91393649  0.32343610  0.32796295     0.40200
H1237       H  0.07752506  0.27447294  0.24024330     0.39800
H1238       H  0.04799113  0.23503971  0.23570035     0.34700
C1239       C  0.01751727  0.26663197  0.70846854    -0.27000
C1240       C  0.98602810  0.27387677  0.68446482    -0.15100
C1241       C  0.95442057  0.29441995  0.69964954     0.35500
C1242       C  0.95492768  0.30733824  0.73786325    -0.26500
C1243       C  0.98646620  0.30028832  0.76211842    -0.15700
C1244       C  0.01792220  0.27927344  0.74685033     0.36600
N1245       N  0.05037551  0.27024544  0.77050448    -0.90000
H1246       H  0.04209910  0.25098134  0.69746148     0.17700
H1247       H  0.92987199  0.32246346  0.74790581     0.17700
N1248       N  0.92182912  0.30321516  0.67616652    -0.89000
H1249       H  0.07530984  0.28209245  0.75701685     0.35100
H1250       H  0.05296157  0.24001473  0.77181591     0.40200
H1251       H  0.91901517  0.33342428  0.67487124     0.39800
H1252       H  0.89710715  0.29110786  0.68984394     0.34700
C1253       C  0.82767722  0.40511441  0.39142637    -0.27000
C1254       C  0.84061585  0.44397863  0.38832331    -0.15100
C1255       C  0.87703670  0.45391301  0.40412540     0.35500
C1256       C  0.90003371  0.42508113  0.42070183    -0.26500
C1257       C  0.88779979  0.38589926  0.42286702    -0.15700
C1258       C  0.85030844  0.37625626  0.40881701     0.36600
N1259       N  0.83375745  0.33780184  0.41246004    -0.90000
H1260       H  0.79959956  0.39705585  0.38017685     0.17700
H1261       H  0.92817989  0.43355370  0.43148585     0.17700
N1262       N  0.89244882  0.49277739  0.40254849    -0.89000
H1263       H  0.84985458  0.31893069  0.39560430     0.35100
H1264       H  0.83430362  0.32880498  0.44154125     0.40200
H1265       H  0.87462734  0.51043594  0.41892572     0.39800
H1266       H  0.89301626  0.50239089  0.37373910     0.34700
C1267       C  0.88681678  0.41852374  0.57224080    -0.27000
C1268       C  0.88348417  0.37935854  0.58475080    -0.15100
C1269       C  0.85427193  0.36911047  0.61249519     0.35500
C1270       C  0.83244488  0.39826612  0.62980668    -0.26500
C1271       C  0.83780334  0.43756989  0.61906574    -0.15700
C1272       C  0.86398782  0.44739539  0.58856396     0.36600
N1273       N  0.86833256  0.48665419  0.57439501    -0.90000
H1274       H  0.90756381  0.42716329  0.54972205     0.17700
H1275       H  0.81114676  0.39006796  0.65197642     0.17700
N1276       N  0.84633222  0.32931306  0.62330244    -0.89000
H1277       H  0.86084285  0.48721619  0.54517919     0.35100
H1278       H  0.89754799  0.49473488  0.57575617     0.40200
H1279       H  0.81765699  0.32277586  0.61624274     0.39800
H1280       H  0.84855156  0.32653353  0.65335076     0.34700
C1281       C  0.06811780  0.40703516  0.62390779    -0.27000
C1282       C  0.08399451  0.38729001  0.59255339    -0.15100
C1283       C  0.12168711  0.39712548  0.57905511     0.35500
C1284       C  0.14279691  0.42656472  0.59694788    -0.26500
C1285       C  0.12728598  0.44617832  0.62856899    -0.15700
C1286       C  0.08950522  0.43643660  0.64225670     0.36600
N1287       N  0.07288847  0.45672571  0.67424122    -0.90000
H1288       H  0.03906889  0.39944775  0.63403357     0.17700
H1289       H  0.17181016  0.43374844  0.58643865     0.17700
N1290       N  0.13895616  0.37796187  0.54687601    -0.89000
H1291       H  0.04503441  0.44588742  0.68077573     0.35100
H1292       H  0.06999200  0.48580094  0.66553274     0.40200
H1293       H  0.12115960  0.38150014  0.52290079     0.39800
H1294       H  0.14037983  0.34827263  0.55364518     0.34700
C1295       C  0.13110136  0.39577370  0.42746447    -0.27000
C1296       C  0.09057611  0.39634397  0.42492138    -0.15100
C1297       C  0.07316871  0.42671715  0.40382574     0.35500
C1298       C  0.09668166  0.45520669  0.38481291    -0.26500
C1299       C  0.13716029  0.45419780  0.38674872    -0.15700
C1300       C  0.15444331  0.42442834  0.40873462     0.36600
N1301       N  0.19558393  0.42159329  0.41091654    -0.90000
H1302       H  0.14469693  0.37258629  0.44361512     0.17700
H1303       H  0.08343997  0.47769231  0.36736428     0.17700
N1304       N  0.03178253  0.42765826  0.40054789    -0.89000
H1305       H  0.20669539  0.44746797  0.42207062     0.35100
H1306       H  0.20648035  0.41867272  0.38279808     0.40200
H1307       H  0.02297146  0.40315194  0.38529301     0.39800
H1308       H  0.02362210  0.45191771  0.38410554     0.34700
C1309       C  0.06918390  0.12187991  0.63394239    -0.27000
C1310       C  0.07864931  0.12612781  0.59454418    -0.15100
C1311       C  0.10502374  0.10048417  0.57740215     0.35500
C1312       C  0.12293080  0.07248958  0.60053338    -0.26500
C1313       C  0.11357310  0.06853080  0.64004250    -0.15700
C1314       C  0.08586954  0.09276295  0.65662934     0.36600
N1315       N  0.07522115  0.08840965  0.69669534    -0.90000
H1316       H  0.04836382  0.14095873  0.64704621     0.17700
H1317       H  0.14382409  0.05339531  0.58758648     0.17700
N1318       N  0.11440976  0.10253416  0.53689031    -0.89000
H1319       H  0.04540906  0.08281933  0.69855847     0.35100
H1320       H  0.08102421  0.11477891  0.71017330     0.40200
H1321       H  0.12433745  0.13068231  0.52996983     0.39800
H1322       H  0.08920593  0.09717805  0.52138515     0.34700
C1323       C  0.89814865  0.05324287  0.62214125    -0.27000
C1324       C  0.87997776  0.06490016  0.65640543    -0.15100
C1325       C  0.88065773  0.10447437  0.66563511     0.35500
C1326       C  0.89773554  0.13189438  0.63977866    -0.26500
C1327       C  0.91365179  0.12086567  0.60392935    -0.15700
C1328       C  0.91401977  0.08074189  0.59521879     0.36600
N1329       N  0.92903103  0.06798427  0.55869837    -0.90000
H1330       H  0.89793218  0.02270864  0.61529641     0.17700
H1331       H  0.89792433  0.16218309  0.64780000     0.17700
N1332       N  0.86388469  0.11694591  0.70132359    -0.89000
H1333       H  0.91067613  0.07823244  0.53713763     0.35100
H1334       H  0.92792359  0.03763362  0.55743193     0.40200
H1335       H  0.84251057  0.13702925  0.69480076     0.39800
H1336       H  0.88544875  0.13126912  0.71683124     0.34700
C1337       C  0.87076490  0.11328705  0.34390706    -0.27000
C1338       C  0.87527804  0.07359341  0.35201846    -0.15100
C1339       C  0.89828411  0.06242118  0.38363441     0.35500
C1340       C  0.91567880  0.09088529  0.40668565    -0.26500
C1341       C  0.91083249  0.13080851  0.39900241    -0.15700
C1342       C  0.88838815  0.14183740  0.36661745     0.36600
N1343       N  0.88346831  0.18193501  0.35615736    -0.90000
H1344       H  0.85349864  0.12231726  0.31950940     0.17700
H1345       H  0.93274276  0.08142348  0.43105505     0.17700
N1346       N  0.90308288  0.02219994  0.39345015    -0.89000
H1347       H  0.85384642  0.18739373  0.35590153     0.35100
H1348       H  0.89437595  0.18653334  0.32801506     0.40200
H1349       H  0.93266599  0.01647945  0.39268350     0.39800
H1350       H  0.89296159  0.01732102  0.42182942     0.34700
C1351       C  0.11536031  0.14429862  0.38324298    -0.27000
C1352       C  0.08003375  0.13460732  0.40189542    -0.15100
C1353       C  0.06314108  0.09749931  0.39577510     0.35500
C1354       C  0.08239033  0.07068134  0.37269861    -0.26500
C1355       C  0.11789347  0.08014562  0.35415121    -0.15700
C1356       C  0.13411693  0.11792126  0.35899529     0.36600
N1357       N  0.16901298  0.12994472  0.33862407    -0.90000
H1358       H  0.12837712  0.17280091  0.38734804     0.17700
H1359       H  0.06926247  0.04210458  0.36968694     0.17700
N1360       N  0.02591327  0.08706587  0.41207865    -0.89000
H1361       H  0.17714351  0.15836448  0.34560042     0.35100
H1362       H  0.16308346  0.13026078  0.30903643     0.40200
H1363       H  0.02880542  0.06198668  0.42932145     0.39800
H1364       H  0.00736416  0.08036660  0.38940917     0.34700
C1365       C  0.02660553  0.74548750  0.29569116    -0.27000
C1366       C  0.99240769  0.74020847  0.31792528    -0.15100
C1367       C  0.95958633  0.72337982  0.30030011     0.35500
C1368       C  0.96197463  0.71206356  0.26162695    -0.26500
C1369       C  0.99679013  0.71494914  0.23990156    -0.15700
C1370       C  0.02882634  0.73383066  0.25696575     0.36600
N1371       N  0.06344594  0.74226825  0.23485197    -0.90000
H1372       H  0.05185168  0.75918718  0.30822318     0.17700
H1373       H  0.93563515  0.70187698  0.24858711     0.17700
N1374       N  0.92378372  0.71739321  0.32155082    -0.89000
H1375       H  0.06844387  0.77235409  0.23468803     0.35100
H1376       H  0.08648804  0.72906812  0.24889718     0.40200
H1377       H  0.92841800  0.69596533  0.34274528     0.39800
H1378       H  0.90210762  0.70627974  0.30385619     0.34700
C1379       C  0.95953975  0.73561653  0.70214641    -0.27000
C1380       C  0.98874674  0.72447559  0.67660499    -0.15100
C1381       C  0.01738206  0.69884963  0.69000268     0.35500
C1382       C  0.01780871  0.68751972  0.72888292    -0.26500
C1383       C  0.99084370  0.70169454  0.75572335    -0.15700
C1384       C  0.95998307  0.72463728  0.74120254     0.36600
N1385       N  0.92882308  0.73809127  0.76499038    -0.90000
H1386       H  0.93658148  0.75404130  0.69192590     0.17700
H1387       H  0.04085721  0.66882970  0.73745678     0.17700
N1388       N  0.04630064  0.68323714  0.66492937    -0.89000
H1389       H  0.93932775  0.75435505  0.78783807     0.35100
H1390       H  0.91216995  0.71447836  0.77552019     0.40200
H1391       H  0.03259465  0.66993707  0.64176014     0.39800
H1392       H  0.06475452  0.70567278  0.65469254     0.34700
C1393       C  0.12246059  0.64809332  0.39073897    -0.27000
C1394       C  0.08953109  0.63538155  0.41241409    -0.15100
C1395       C  0.08206001  0.59467573  0.41672252     0.35500
C1396       C  0.10743228  0.56843004  0.39958900    -0.26500
C1397       C  0.13947379  0.58142352  0.37749424    -0.15700
C1398       C  0.14719498  0.62169472  0.37323296     0.36600
N1399       N  0.18037932  0.63655963  0.35199197    -0.90000
H1400       H  0.12922759  0.67886072  0.38719752     0.17700
H1401       H  0.10157494  0.53749148  0.40269075     0.17700
N1402       N  0.04845780  0.57977463  0.43758146    -0.89000
H1403       H  0.17837190  0.62804634  0.32324419     0.35100
H1404       H  0.20507133  0.62431094  0.36389172     0.40200
H1405       H  0.05324669  0.58395696  0.46701084     0.39800
H1406       H  0.04534773  0.54971335  0.43434610     0.34700
C1407       C  0.12079867  0.64305324  0.60587775    -0.27000
C1408       C  0.08938043  0.63067858  0.58319939    -0.15100
C1409       C  0.08287718  0.59012921  0.57935459     0.35500
C1410       C  0.10701793  0.56351011  0.59817618    -0.26500
C1411       C  0.13778739  0.57606633  0.62113215    -0.15700
C1412       C  0.14482257  0.61628614  0.62468972     0.36600
N1413       N  0.17683375  0.63013334  0.64675666    -0.90000
H1414       H  0.12700070  0.67379088  0.60917492     0.17700
H1415       H  0.10100156  0.53265062  0.59545259     0.17700
N1416       N  0.05164208  0.57548719  0.55672452    -0.89000
H1417       H  0.16608184  0.64792862  0.66842464     0.35100
H1418       H  0.19481939  0.64723842  0.62840800     0.40200
H1419       H  0.03366143  0.55805459  0.57477187     0.39800
H1420       H  0.06323775  0.55786054  0.53534915     0.34700
C1421       C  0.82507346  0.59769511  0.59916189    -0.27000
C1422       C  0.84242644  0.56698476  0.61904719    -0.15100
C1423       C  0.88304393  0.56668845  0.62221738     0.35500
C1424       C  0.90581828  0.59527324  0.60273311    -0.26500
C1425       C  0.88859395  0.62610393  0.58278599    -0.15700
C1426       C  0.84772876  0.62806256  0.58207165     0.36600
N1427       N  0.82942726  0.66127579  0.56497078    -0.90000
H1428       H  0.79379373  0.59883411  0.59850059     0.17700
H1429       H  0.93704621  0.59440119  0.60475537     0.17700
N1430       N  0.90112092  0.53822482  0.64641731    -0.89000
H1431       H  0.79931759  0.65827604  0.56710608     0.35100
H1432       H  0.83654446  0.66226068  0.53552680     0.40200
H1433       H  0.91575654  0.55294438  0.66816631     0.39800
H1434       H  0.92183997  0.52401068  0.62991874     0.34700
C1435       C  0.90526207  0.61644189  0.37547504    -0.27000
C1436       C  0.89449391  0.63015039  0.41184760    -0.15100
C1437       C  0.86018164  0.61622273  0.42998941     0.35500
C1438       C  0.83676959  0.58903818  0.41112783    -0.26500
C1439       C  0.84741452  0.57462369  0.37480662    -0.15700
C1440       C  0.88216239  0.58867690  0.35663732     0.36600
N1441       N  0.89416864  0.57475918  0.31947339    -0.90000
H1442       H  0.93189680  0.62726582  0.36188437     0.17700
H1443       H  0.80995995  0.57912717  0.42499106     0.17700
N1444       N  0.84922264  0.62993664  0.46750373    -0.89000
H1445       H  0.90009258  0.54522577  0.32250612     0.35100
H1446       H  0.91995714  0.58858822  0.31015108     0.40200
H1447       H  0.86998932  0.62053959  0.48711086     0.39800
H1448       H  0.82286108  0.61722269  0.47673451     0.34700
C1449       C  0.07451166  0.88885939  0.35871477    -0.27000
C1450       C  0.07006272  0.89616577  0.39848587    -0.15100
C1451       C  0.08333911  0.93245572  0.41246527     0.35500
C1452       C  0.10055205  0.96002544  0.38678001    -0.26500
C1453       C  0.10536745  0.95235346  0.34729751    -0.15700
C1454       C  0.09262026  0.91625355  0.33316409     0.36600
N1455       N  0.09861646  0.90729718  0.29310028    -0.90000
H1456       H  0.06442474  0.86127873  0.34760263     0.17700
H1457       H  0.11167399  0.98715815  0.39804065     0.17700
N1458       N  0.08169006  0.94144614  0.45275196    -0.89000
H1459       H  0.08698821  0.87979705  0.28717767     0.35100
H1460       H  0.12842911  0.90588121  0.28804234     0.40200
H1461       H  0.09561124  0.91961380  0.46840913     0.39800
H1462       H  0.05275202  0.94221901  0.46172916     0.34700
C1463       C  0.87148640  0.90857846  0.41924633    -0.27000
C1464       C  0.90257651  0.88833271  0.40369692    -0.15100
C1465       C  0.91520524  0.89585574  0.36528745     0.35500
C1466       C  0.89618070  0.92376900  0.34289789    -0.26500
C1467       C  0.86487223  0.94393096  0.35828514    -0.15700
C1468       C  0.85239380  0.93631747  0.39672158     0.36600
N1469       N  0.82123366  0.95751394  0.41328136    -0.90000
H1470       H  0.86193266  0.90269006  0.44885255     0.17700
H1471       H  0.90579781  0.92990240  0.31335378     0.17700
N1472       N  0.94739903  0.87530832  0.34940948    -0.89000
H1473       H  0.83159369  0.97181796  0.43756937     0.35100
H1474       H  0.79976920  0.93748923  0.42264445     0.40200
H1475       H  0.97196003  0.88315286  0.36498626     0.39800
H1476       H  0.95284474  0.88416521  0.32067261     0.34700
C1477       C  0.88103122  0.91378894  0.57988560    -0.27000
C1478       C  0.89866360  0.88209175  0.59811282    -0.15100
C1479       C  0.89711279  0.87842711  0.63899988     0.35500
C1480       C  0.87927051  0.90705928  0.66057301    -0.26500
C1481       C  0.86154589  0.93858940  0.64236562    -0.15700
C1482       C  0.86197625  0.94189431  0.60140913     0.36600
N1483       N  0.84357777  0.97297714  0.58065665    -0.90000
H1484       H  0.88171913  0.91652855  0.54855985     0.17700
H1485       H  0.87895492  0.90453707  0.69192274     0.17700
N1486       N  0.91423376  0.84663277  0.65950051    -0.89000
H1487       H  0.86492219  0.98833060  0.56456646     0.35100
H1488       H  0.83111349  0.99281802  0.59926880     0.40200
H1489       H  0.94334640  0.84517551  0.65117011     0.39800
H1490       H  0.89995627  0.82080938  0.65220544     0.34700
C1491       C  0.09451565  0.87411922  0.63233324    -0.27000
C1492       C  0.07510865  0.88723552  0.59897663    -0.15100
C1493       C  0.07538560  0.92763178  0.59047105     0.35500
C1494       C  0.09427296  0.95354629  0.61519107    -0.26500
C1495       C  0.11360967  0.94028321  0.64822316    -0.15700
C1496       C  0.11374412  0.89997368  0.65671253     0.36600
N1497       N  0.13195796  0.88448802  0.69050466    -0.90000
H1498       H  0.09469954  0.84340073  0.63988765     0.17700
H1499       H  0.09419483  0.98438773  0.60814362     0.17700
N1500       N  0.05704163  0.94269963  0.55659138    -0.89000
H1501       H  0.12075836  0.89824459  0.71480596     0.35100
H1502       H  0.16163834  0.89045278  0.68848180     0.40200
H1503       H  0.07794774  0.95785699  0.53974399     0.39800
H1504       H  0.03627398  0.96250802  0.56534863     0.34700
C1505       C  0.19273069  0.78102677  0.47019780    -0.27000
C1506       C  0.16767001  0.79312563  0.49934373    -0.15100
C1507       C  0.18158743  0.81865028  0.52754502     0.35500
C1508       C  0.22104477  0.82879823  0.52817847    -0.26500
C1509       C  0.24725030  0.81434530  0.50062283    -0.15700
C1510       C  0.23185833  0.79150745  0.47002763     0.36600
N1511       N  0.25483920  0.77775269  0.43838652    -0.90000
H1512       H  0.18196341  0.76254428  0.44752255     0.17700
H1513       H  0.23053579  0.84730602  0.55109642     0.17700
N1514       N  0.15557916  0.83496662  0.55521297    -0.89000
H1515       H  0.27719329  0.76049071  0.44831477     0.35100
H1516       H  0.26591501  0.80126440  0.42191500     0.40200
H1517       H  0.15721857  0.86525980  0.55203776     0.39800
H1518       H  0.16494060  0.82752358  0.58297763     0.34700
C1519       C  0.34521042  0.70399584  0.50814799    -0.27000
C1520       C  0.36537518  0.73753450  0.52039389    -0.15100
C1521       C  0.40040859  0.73235707  0.54036607     0.35500
C1522       C  0.41477286  0.69450512  0.54602434    -0.26500
C1523       C  0.39362149  0.66154755  0.53426408    -0.15700
C1524       C  0.35751617  0.66659553  0.51691879     0.36600
N1525       N  0.33305382  0.63426495  0.50652246    -0.90000
H1526       H  0.31913265  0.70631384  0.49141916     0.17700
H1527       H  0.44305962  0.69097884  0.55848366     0.17700
N1528       N  0.42159537  0.76497437  0.55486167    -0.89000
H1529       H  0.30668046  0.63693173  0.52131517     0.35100
H1530       H  0.34415577  0.60779735  0.51605952     0.40200
H1531       H  0.44923532  0.76533164  0.54216438     0.39800
H1532       H  0.42456029  0.76087836  0.58472982     0.34700
C1533       C  0.24264884  0.25725807  0.48577543    -0.27000
C1534       C  0.25399984  0.21925032  0.49652299    -0.15100
C1535       C  0.22418682  0.19179836  0.50676162     0.35500
C1536       C  0.18572981  0.20416959  0.51112267    -0.26500
C1537       C  0.17524492  0.24256869  0.50281106    -0.15700
C1538       C  0.20409096  0.26925517  0.48899525     0.36600
N1539       N  0.19555039  0.30867361  0.47790035    -0.90000
H1540       H  0.26356539  0.27821448  0.47399910     0.17700
H1541       H  0.16333742  0.18330340  0.51974132     0.17700
N1542       N  0.23269266  0.15131117  0.51208684    -0.89000
H1543       H  0.21096525  0.32705437  0.49613444     0.35100
H1544       H  0.16639702  0.31469059  0.48235996     0.40200
H1545       H  0.24217806  0.14099071  0.48540647     0.39800
H1546       H  0.20768800  0.13518027  0.51975205     0.34700
C1547       C  0.39325218  0.28195370  0.54432112    -0.27000
C1548       C  0.39379128  0.26409469  0.50808991    -0.15100
C1549       C  0.41783942  0.27958465  0.47818528     0.35500
C1550       C  0.43830418  0.31467465  0.48402272    -0.26500
C1551       C  0.43490275  0.33447182  0.51906668    -0.15700
C1552       C  0.41340644  0.31728973  0.55004474     0.36600
N1553       N  0.40999863  0.33700172  0.58617501    -0.90000
H1554       H  0.37471854  0.26978152  0.56724786     0.17700
H1555       H  0.45471391  0.32816890  0.46018623     0.17700
N1556       N  0.41928225  0.26113606  0.44126588    -0.89000
H1557       H  0.39347917  0.32021084  0.60611465     0.35100
H1558       H  0.39471084  0.36247700  0.58107683     0.40200
H1559       H  0.43866961  0.27604437  0.42248048     0.39800
H1560       H  0.39195240  0.26350890  0.42902332     0.34700
C1561       C  0.71957147  0.30994389  0.96732430    -0.27000
C1562       C  0.71541066  0.32979631  0.00217248    -0.15100
C1563       C  0.69821805  0.31023685  0.03449388     0.35500
C1564       C  0.68636644  0.27134967  0.03163663    -0.26500
C1565       C  0.69134684  0.25099917  0.99701547    -0.15700
C1566       C  0.70818646  0.27101063  0.96454787     0.36600
N1567       N  0.71563797  0.25132043  0.92910038    -0.90000
H1568       H  0.73266562  0.32432612  0.94203790     0.17700
H1569       H  0.67514651  0.25727459  0.05768535     0.17700
N1570       N  0.69279220  0.32947433  0.07051964    -0.89000
H1571       H  0.74536025  0.25310837  0.92311637     0.35100
H1572       H  0.70135432  0.26589932  0.90682047     0.40200
H1573       H  0.70755727  0.31408789  0.09192635     0.39800
H1574       H  0.66329873  0.32839089  0.07767032     0.34700
C1575       C  0.79473078  0.14313109  0.00954834    -0.27000
C1576       C  0.76385635  0.13019299  0.98691887    -0.15100
C1577       C  0.77090717  0.10337285  0.95746878     0.35500
C1578       C  0.80855727  0.08918023  0.95187941    -0.26500
C1579       C  0.83919518  0.10220909  0.97489471    -0.15700
C1580       C  0.83222150  0.13010354  0.00342840     0.36600
N1581       N  0.86326199  0.14386284  0.02725651    -0.90000
H1582       H  0.78956766  0.16387052  0.03215913     0.17700
H1583       H  0.81351081  0.06698023  0.93066725     0.17700
N1584       N  0.74020692  0.09102569  0.93292939    -0.89000
H1585       H  0.85332331  0.16397237  0.04719418     0.35100
H1586       H  0.88339042  0.15868538  0.00924748     0.40200
H1587       H  0.73742636  0.06075491  0.93541900     0.39800
H1588       H  0.74814220  0.09821197  0.90431723     0.34700
C1589       C  0.25978060  0.29934891  0.97012772    -0.27000
C1590       C  0.25865848  0.32001284  0.00475870    -0.15100
C1591       C  0.26831300  0.30005024  0.03947340     0.35500
C1592       C  0.27945781  0.26097827  0.03872341    -0.26500
C1593       C  0.28129313  0.24043229  0.00396933    -0.15700
C1594       C  0.27028952  0.26011925  0.96948084     0.36600
N1595       N  0.26927683  0.24021749  0.93346503    -0.90000
H1596       H  0.25220981  0.31354938  0.94308027     0.17700
H1597       H  0.28562020  0.24695794  0.06608000     0.17700
N1598       N  0.26729572  0.31914553  0.07588320    -0.89000
H1599       H  0.24116293  0.24147333  0.92284633     0.35100
H1600       H  0.28779516  0.25508223  0.91378560     0.40200
H1601       H  0.24777081  0.30387840  0.09424010     0.39800
H1602       H  0.29477745  0.31726901  0.08786519     0.34700
C1603       C  0.16979419  0.09511504  0.94514791    -0.27000
C1604       C  0.16106034  0.06305557  0.96941946    -0.15100
C1605       C  0.18858136  0.05005896  0.99620815     0.35500
C1606       C  0.22296999  0.07198142  0.00099978    -0.26500
C1607       C  0.22987176  0.10640131  0.97929729    -0.15700
C1608       C  0.20429972  0.11646786  0.94941805     0.36600
N1609       N  0.21291961  0.14898815  0.92396341    -0.90000
H1610       H  0.14879990  0.10491751  0.92428566     0.17700
H1611       H  0.24299249  0.06370411  0.02340981     0.17700
N1612       N  0.18017252  0.01621565  0.02012986    -0.89000
H1613       H  0.19036251  0.16864394  0.92620190     0.35100
H1614       H  0.21367972  0.13895637  0.89560641     0.40200
H1615       H  0.20314016  0.01071991  0.03868174     0.39800
H1616       H  0.17812512  0.99249262  0.00177610     0.34700
C1617       C  0.73928794  0.75884770  0.49250726    -0.27000
C1618       C  0.72660240  0.79636118  0.50267732    -0.15100
C1619       C  0.75609781  0.82480217  0.51036483     0.35500
C1620       C  0.79529522  0.81473277  0.50927925    -0.26500
C1621       C  0.80696306  0.77728814  0.49982050    -0.15700
C1622       C  0.77850581  0.74905899  0.49108141     0.36600
N1623       N  0.78804903  0.71020673  0.48016075    -0.90000
H1624       H  0.71948764  0.73624564  0.48407936     0.17700
H1625       H  0.81709207  0.83676379  0.51547547     0.17700
N1626       N  0.74790773  0.86451405  0.51863492    -0.89000
H1627       H  0.77626007  0.69102441  0.50124634     0.35100
H1628       H  0.81782822  0.70597922  0.47974082     0.40200
H1629       H  0.73284171  0.86615111  0.54483753     0.39800
H1630       H  0.73191231  0.87683054  0.49633797     0.34700
C1631       C  0.59101065  0.72990232  0.45203035    -0.27000
C1632       C  0.58556108  0.75343503  0.48429781    -0.15100
C1633       C  0.55368209  0.74603363  0.50942291     0.35500
C1634       C  0.53079283  0.71223719  0.50440951    -0.26500
C1635       C  0.53905531  0.68650098  0.47446880    -0.15700
C1636       C  0.56780168  0.69678129  0.44647570     0.36600
N1637       N  0.57610444  0.67290621  0.41378062    -0.90000
H1638       H  0.61482970  0.73625934  0.43199222     0.17700
H1639       H  0.50853129  0.70431338  0.52569095     0.17700
N1640       N  0.54629392  0.77121747  0.54127507    -0.89000
H1641       H  0.57184251  0.68981755  0.38876772     0.35100
H1642       H  0.55663323  0.64942151  0.41228426     0.40200
H1643       H  0.56954761  0.76921732  0.56015920     0.39800
H1644       H  0.52168292  0.76163258  0.55691568     0.34700
C1645       C  0.69286593  0.74799267  0.03177219    -0.27000
C1646       C  0.69724964  0.77116647  0.99781896    -0.15100
C1647       C  0.71613362  0.75461646  0.96564959     0.35500
C1648       C  0.72728529  0.71543354  0.96713235    -0.26500
C1649       C  0.72158052  0.69210033  0.00077637    -0.15700
C1650       C  0.70416681  0.70927977  0.03357163     0.36600
N1651       N  0.69683942  0.68844799  0.06936010    -0.90000
H1652       H  0.68190187  0.75977559  0.05833118     0.17700
H1653       H  0.74109455  0.70344855  0.94180484     0.17700
N1654       N  0.72495017  0.77770574  0.93157266    -0.89000
H1655       H  0.72309173  0.68004351  0.08120845     0.35100
H1656       H  0.67926826  0.66410560  0.06414407     0.40200
H1657       H  0.75488932  0.77766952  0.92689317     0.39800
H1658       H  0.71179337  0.76442864  0.90805644     0.34700
C1659       C  0.77204699  0.89900908  0.04450315    -0.27000
C1660       C  0.74836576  0.90700759  0.01279815    -0.15100
C1661       C  0.75649535  0.93977920  0.98882044     0.35500
C1662       C  0.79060005  0.96159332  0.99442161    -0.26500
C1663       C  0.81610471  0.95107324  0.02388310    -0.15700
C1664       C  0.80602381  0.92081431  0.05021852     0.36600
N1665       N  0.83195328  0.91056112  0.08074617    -0.90000
H1666       H  0.76502257  0.87441417  0.06361355     0.17700
H1667       H  0.79863453  0.98478858  0.97395482     0.17700
N1668       N  0.73185558  0.94916256  0.95714924    -0.89000
H1669       H  0.82072104  0.88697075  0.09716744     0.35100
H1670       H  0.83357662  0.93414275  0.09930690     0.40200
H1671       H  0.72243246  0.97759077  0.96061314     0.39800
H1672       H  0.74833529  0.94852341  0.93156990     0.34700
C1673       C  0.30759377  0.73759070  0.02347141    -0.27000
C1674       C  0.29121100  0.76428136  0.99716422    -0.15100
C1675       C  0.26508778  0.74921118  0.96891688     0.35500
C1676       C  0.25522658  0.70962053  0.96956840    -0.26500
C1677       C  0.26953973  0.68430032  0.99763490    -0.15700
C1678       C  0.29682946  0.69805559  0.02420124     0.36600
N1679       N  0.31366514  0.67174257  0.05183568    -0.90000
H1680       H  0.32805501  0.74692008  0.04464721     0.17700
H1681       H  0.23487462  0.69876647  0.94856647     0.17700
N1682       N  0.24622262  0.77271365  0.94008377    -0.89000
H1683       H  0.33282822  0.68646487  0.06982393     0.35100
H1684       H  0.33009898  0.65194588  0.03638380     0.40200
H1685       H  0.25453021  0.80184136  0.93984540     0.39800
H1686       H  0.21651335  0.77166486  0.94628274     0.34700
C1687       C  0.18600238  0.86610380  0.99515043    -0.27000
C1688       C  0.21607257  0.88170528  0.01743037    -0.15100
C1689       C  0.20744662  0.91036458  0.04474587     0.35500
C1690       C  0.16894453  0.92317057  0.04855456    -0.26500
C1691       C  0.13933892  0.90750293  0.02573321    -0.15700
C1692       C  0.14802259  0.87811519  0.99957406     0.36600
N1693       N  0.11813874  0.86081204  0.97683441    -0.90000
H1694       H  0.19196444  0.84411975  0.97395301     0.17700
H1695       H  0.16234449  0.94648878  0.06804192     0.17700
N1696       N  0.23751548  0.92629575  0.06829466    -0.89000
H1697       H  0.11747414  0.83086456  0.98273970     0.35100
H1698       H  0.12549108  0.86513259  0.94757743     0.40200
H1699       H  0.24750360  0.90381327  0.08610189     0.39800
H1700       H  0.22637704  0.94727372  0.08662845     0.34700
C1701       C  0.28729201  0.97566810  0.26151684    -0.27000
C1702       C  0.31335157  0.00198080  0.27776838    -0.15100
C1703       C  0.29999246  0.02807990  0.30533677     0.35500
C1704       C  0.26051535  0.02930686  0.31440535    -0.26500
C1705       C  0.23306333  0.00528160  0.29595778    -0.15700
C1706       C  0.24751721  0.97681941  0.26988447     0.36600
N1707       N  0.22338871  0.94893018  0.25050256    -0.90000
H1708       H  0.29776146  0.95467078  0.24106476     0.17700
H1709       H  0.25239600  0.04988026  0.33586171     0.17700
N1710       N  0.32667304  0.05320633  0.32474122    -0.89000
H1711       H  0.22494411  0.95546018  0.22082066     0.35100
H1712       H  0.19439259  0.94970661  0.25857929     0.40200
H1713       H  0.31868980  0.08197403  0.31950578     0.39800
H1714       H  0.32417636  0.04744380  0.35451603     0.34700
C1715       C  0.69757784  0.97874404  0.26147570    -0.27000
C1716       C  0.67494682  0.01127219  0.26841381    -0.15100
C1717       C  0.69236400  0.04354809  0.28636282     0.35500
C1718       C  0.73154787  0.04292388  0.29641557    -0.26500
C1719       C  0.75467188  0.01030844  0.28983256    -0.15700
C1720       C  0.73660667  0.97763256  0.27177675     0.36600
N1721       N  0.75646220  0.94249542  0.26325257    -0.90000
H1722       H  0.68479898  0.95353796  0.24787856     0.17700
H1723       H  0.74307589  0.06874090  0.30939897     0.17700
N1724       N  0.67021194  0.07695367  0.29556954    -0.89000
H1725       H  0.76539114  0.92882019  0.28866584     0.35100
H1726       H  0.78004338  0.94825386  0.24477336     0.40200
H1727       H  0.68328652  0.10125654  0.28175638     0.39800
H1728       H  0.67136077  0.08088858  0.32547227     0.34700
C1729       C  0.38818022  0.92454007  0.41388647    -0.27000
C1730       C  0.41337513  0.90755603  0.38731504    -0.15100
C1731       C  0.42144364  0.86750780  0.39138337     0.35500
C1732       C  0.40276613  0.84497668  0.42105574    -0.26500
C1733       C  0.37551886  0.86154872  0.44581587    -0.15700
C1734       C  0.36887974  0.90186687  0.44266651     0.36600
N1735       N  0.34216582  0.91980397  0.46853119    -0.90000
H1736       H  0.38238677  0.95534467  0.41143567     0.17700
H1737       H  0.40819282  0.81413501  0.42381183     0.17700
N1738       N  0.44887050  0.85002020  0.36574748    -0.89000
H1739       H  0.32060086  0.93261585  0.45196864     0.35100
H1740       H  0.35692568  0.94192600  0.48289253     0.40200
H1741       H  0.43711818  0.85008937  0.33805011     0.39800
H1742       H  0.45266155  0.82084244  0.37360686     0.34700
C1743       C  0.60472861  0.93239392  0.40693626    -0.27000
C1744       C  0.58160891  0.91415778  0.37924150    -0.15100
C1745       C  0.57744822  0.87294596  0.38014905     0.35500
C1746       C  0.59673613  0.85139196  0.40846097    -0.26500
C1747       C  0.61966290  0.86965557  0.43600975    -0.15700
C1748       C  0.62399672  0.91048877  0.43507618     0.36600
N1749       N  0.64748075  0.93030599  0.46254681    -0.90000
H1750       H  0.60818982  0.96379171  0.40638063     0.17700
H1751       H  0.59308351  0.81999591  0.40949937     0.17700
N1752       N  0.55328986  0.85190002  0.35376877    -0.89000
H1753       H  0.67571345  0.92026163  0.45997494     0.35100
H1754       H  0.63708800  0.92311270  0.49038148     0.40200
H1755       H  0.53725853  0.87031141  0.33620574     0.39800
H1756       H  0.53278363  0.83587444  0.37031512     0.34700
C1757       C  0.37686049  0.11588379  0.43879561    -0.27000
C1758       C  0.36701032  0.15411890  0.42894538    -0.15100
C1759       C  0.37537131  0.16860968  0.39120885     0.35500
C1760       C  0.39389904  0.14456258  0.36432195    -0.26500
C1761       C  0.40466643  0.10639261  0.37449762    -0.15700
C1762       C  0.39577059  0.09211126  0.41222355     0.36600
N1763       N  0.40526408  0.05323123  0.42361825    -0.90000
H1764       H  0.36946672  0.10417172  0.46730600     0.17700
H1765       H  0.40062051  0.15600130  0.33549473     0.17700
N1766       N  0.36620900  0.20796698  0.38071343    -0.89000
H1767       H  0.37970948  0.03844622  0.43206812     0.35100
H1768       H  0.42317880  0.05469563  0.44769265     0.40200
H1769       H  0.33610985  0.21012371  0.38116717     0.39800
H1770       H  0.37540131  0.21455008  0.35231950     0.34700
C1771       C  0.46033701  0.20837034  0.22952408    -0.27000
C1772       C  0.49339118  0.18721301  0.22045827    -0.15100
C1773       C  0.52461789  0.20645777  0.20054990     0.35500
C1774       C  0.52281723  0.24618746  0.19223167    -0.26500
C1775       C  0.49064945  0.26808494  0.20337065    -0.15700
C1776       C  0.45859245  0.24819775  0.22106973     0.36600
N1777       N  0.42428931  0.26857781  0.23129898    -0.90000
H1778       H  0.43571097  0.19415164  0.24398563     0.17700
H1779       H  0.54758880  0.25912427  0.17746332     0.17700
N1780       N  0.55842818  0.18670468  0.18761746    -0.89000
H1781       H  0.41945618  0.26498738  0.26111679     0.35100
H1782       H  0.40097369  0.25571112  0.21707538     0.40200
H1783       H  0.54999944  0.16341761  0.17045133     0.39800
H1784       H  0.57359782  0.17658359  0.21160129     0.34700
C1785       C  0.52522912  0.76690703  0.20835709    -0.27000
C1786       C  0.49027565  0.74505704  0.20839440    -0.15100
C1787       C  0.45689639  0.76233144  0.22450626     0.35500
C1788       C  0.45857620  0.80152575  0.23577438    -0.26500
C1789       C  0.49314246  0.82383536  0.23302981    -0.15700
C1790       C  0.52687357  0.80572749  0.21955311     0.36600
N1791       N  0.56315266  0.82653317  0.21654089    -0.90000
H1792       H  0.55235504  0.75404587  0.20051755     0.17700
H1793       H  0.43260281  0.81460083  0.24702834     0.17700
N1794       N  0.42144120  0.74016349  0.22980275    -0.89000
H1795       H  0.57273938  0.82589575  0.18772001     0.35100
H1796       H  0.58319261  0.81192489  0.23358805     0.40200
H1797       H  0.39960282  0.75739476  0.24112157     0.39800
H1798       H  0.42625376  0.71832810  0.25055155     0.34700
C1799       C  0.57633880  0.11504210  0.08828856    -0.27000
C1800       C  0.59151644  0.08649367  0.11276653    -0.15100
C1801       C  0.62987182  0.07419927  0.10648340     0.35500
C1802       C  0.65319310  0.09275419  0.07774225    -0.26500
C1803       C  0.63870650  0.12315350  0.05492901    -0.15700
C1804       C  0.59939870  0.13323746  0.05913207     0.36600
N1805       N  0.58322120  0.16225871  0.03392830    -0.90000
H1806       H  0.54658929  0.12361164  0.09239992     0.17700
H1807       H  0.68300774  0.08425581  0.07402955     0.17700
N1808       N  0.64555852  0.04272072  0.12859993    -0.89000
H1809       H  0.55409076  0.16640198  0.04089420     0.35100
H1810       H  0.58404122  0.15160912  0.00580839     0.40200
H1811       H  0.62791247  0.01805259  0.12492174     0.39800
H1812       H  0.64475372  0.04983318  0.15785720     0.34700
C1813       C  0.61290768  0.89086907  0.13131967    -0.27000
C1814       C  0.58761070  0.92081033  0.12130351    -0.15100
C1815       C  0.58661686  0.93422640  0.08238755     0.35500
C1816       C  0.60861827  0.91589775  0.05422396    -0.26500
C1817       C  0.63248324  0.88493763  0.06394850    -0.02100
C1818       C  0.63601825  0.87338872  0.10317987     0.36600
N1819       N  0.66392148  0.84500650  0.11445561    -0.90000
H1820       H  0.61516856  0.88136829  0.16126493     0.17700
H1821       H  0.60697646  0.92628937  0.02456728     0.17700
N1822       N  0.56423402  0.96714158  0.07126065    -0.89000
H1823       H  0.66301129  0.84007564  0.14442352     0.35100
H1824       H  0.69140208  0.85673992  0.10772885     0.40200
H1825       H  0.54488211  0.95846124  0.04996984     0.39800
H1826       H  0.58300692  0.98840682  0.05907453     0.34700
C1827       C  0.35795535  0.92047223  0.06354709    -0.27000
C1828       C  0.34159311  0.88356172  0.07203415    -0.15100
C1829       C  0.34738481  0.86662080  0.10919531     0.35500
C1830       C  0.37165025  0.88550315  0.13545575    -0.26500
C1831       C  0.38977911  0.92139317  0.12612079    -0.15700
C1832       C  0.38169441  0.93954214  0.08988814     0.36600
N1833       N  0.39610437  0.97767113  0.07914723    -0.90000
H1834       H  0.35310080  0.93459049  0.03583154     0.17700
H1835       H  0.37666042  0.87180239  0.16340571     0.17700
N1836       N  0.32820366  0.83062113  0.12056339    -0.89000
H1837       H  0.42620461  0.97723038  0.07643533     0.35100
H1838       H  0.38813004  0.99700818  0.10065945     0.40200
H1839       H  0.29846004  0.83548536  0.12110374     0.39800
H1840       H  0.33569722  0.82214098  0.14866494     0.34700
C1841       C  0.35251993  0.09763209  0.13161736    -0.27000
C1842       C  0.38934769  0.08490482  0.11996079    -0.15100
C1843       C  0.39969198  0.08737640  0.08010489     0.35500
C1844       C  0.37349857  0.10301808  0.05343179    -0.26500
C1845       C  0.33768763  0.11719679  0.06559929    -0.15700
C1846       C  0.32668002  0.11369317  0.10487399     0.36600
N1847       N  0.28927531  0.12646688  0.11736205    -0.90000
H1848       H  0.34370489  0.09505517  0.16179114     0.17700
H1849       H  0.38183620  0.10583999  0.02313914     0.17700
N1850       N  0.43703696  0.07514250  0.06681898    -0.89000
H1851       H  0.28548857  0.12180209  0.14718851     0.35100
H1852       H  0.26846781  0.10908364  0.10394159     0.40200
H1853       H  0.45776989  0.09402266  0.07831705     0.39800
H1854       H  0.43957705  0.07813935  0.03670276     0.34700
C1855       C  0.75730822  0.19688577  0.46644888    -0.27000
C1856       C  0.73163643  0.20918006  0.49549543    -0.15100
C1857       C  0.74715770  0.22967330  0.52716790     0.35500
C1858       C  0.78681628  0.23838186  0.52856618    -0.26500
C1859       C  0.81187517  0.22786738  0.49859913    -0.15700
C1860       C  0.79700750  0.20609418  0.46772286     0.36600
N1861       N  0.82213996  0.19297023  0.43757778    -0.90000
H1862       H  0.74716928  0.18097191  0.44190951     0.17700
H1863       H  0.79778631  0.25471625  0.55270520     0.17700
N1864       N  0.72233053  0.24313247  0.55745226    -0.89000
H1865       H  0.81236002  0.20428351  0.41125399     0.35100
H1866       H  0.81980538  0.16264236  0.43676095     0.40200
H1867       H  0.73164034  0.23133018  0.58374994     0.39800
H1868       H  0.72537659  0.27340104  0.55850335     0.34700
C1869       C  0.56464750  0.10884498  0.41023880    -0.27000
C1870       C  0.57546789  0.11367047  0.37094661    -0.15100
C1871       C  0.60164412  0.14436359  0.36022017     0.35500
C1872       C  0.61803553  0.16746394  0.38885056    -0.26500
C1873       C  0.60860659  0.16109333  0.42803437    -0.15700
C1874       C  0.58087067  0.13223119  0.43868606     0.36600
N1875       N  0.57025882  0.12532057  0.47847121    -0.90000
H1876       H  0.54394113  0.08630252  0.41934293     0.17700
H1877       H  0.63885372  0.19018196  0.38044209     0.17700
N1878       N  0.61209308  0.15224148  0.32051761    -0.89000
H1879       H  0.57644536  0.09646363  0.48570223     0.35100
H1880       H  0.54038035  0.12870489  0.48138079     0.40200
H1881       H  0.64216290  0.15075282  0.31774855     0.39800
H1882       H  0.60427811  0.18072747  0.31359415     0.34700
C1883       C  0.57313349  0.33133806  0.45197935    -0.27000
C1884       C  0.58660426  0.36062988  0.47659486    -0.15100
C1885       C  0.61278847  0.35074235  0.50592148     0.35500
C1886       C  0.62410193  0.31230814  0.51106479    -0.26500
C1887       C  0.61099846  0.28287677  0.48670362    -0.15700
C1888       C  0.58557736  0.29255372  0.45657222     0.36600
N1889       N  0.57304979  0.26342788  0.43026176    -0.90000
H1890       H  0.55203200  0.33823703  0.43013159     0.17700
H1891       H  0.64414106  0.30551721  0.53397660     0.17700
N1892       N  0.62745431  0.37991011  0.53122721    -0.89000
H1893       H  0.58153134  0.27248802  0.40228420     0.35100
H1894       H  0.54282901  0.26183557  0.43137516     0.40200
H1895       H  0.65763656  0.38056405  0.52879776     0.39800
H1896       H  0.61992895  0.37160529  0.55967432     0.34700
C1897       C  0.28331065  0.98083400  0.74451362    -0.27000
C1898       C  0.30833501  0.01138157  0.73213189    -0.15100
C1899       C  0.29384816  0.04060381  0.70737187     0.35500
C1900       C  0.25512621  0.03909739  0.69590394    -0.26500
C1901       C  0.22959091  0.00872315  0.70835490    -0.15700
C1902       C  0.24433904  0.97947602  0.73329622     0.36600
N1903       N  0.21957869  0.94845682  0.74784682    -0.90000
H1904       H  0.29390006  0.95797820  0.76338065     0.17700
H1905       H  0.24586678  0.06261698  0.67752446     0.17700
N1906       N  0.31863327  0.07155123  0.69267264    -0.89000
H1907       H  0.21947283  0.94915759  0.77809211     0.35100
H1908       H  0.23138216  0.92212843  0.73946167     0.40200
H1909       H  0.30683966  0.09795493  0.70086348     0.39800
H1910       H  0.31881597  0.07066793  0.66243513     0.34700
C1911       C  0.69173802  0.97634539  0.73408862    -0.27000
C1912       C  0.67104993  0.01038016  0.72726933    -0.15100
C1913       C  0.69002291  0.04242884  0.70821937     0.35500
C1914       C  0.72959660  0.04045835  0.69880045    -0.26500
C1915       C  0.75063227  0.00665294  0.70647516    -0.15700
C1916       C  0.73074219  0.97396709  0.72341142     0.36600
N1917       N  0.75036156  0.93822655  0.73048129    -0.90000
H1918       H  0.67762472  0.95113534  0.74782634     0.17700
H1919       H  0.74326409  0.06562933  0.68509939     0.17700
N1920       N  0.66900355  0.07660118  0.69753373    -0.89000
H1921       H  0.73593467  0.91618076  0.71568822     0.35100
H1922       H  0.74845563  0.93155115  0.76012074     0.40200
H1923       H  0.64910734  0.06854947  0.67648540     0.39800
H1924       H  0.68733926  0.09771814  0.68446877     0.34700
C1925       C  0.39558434  0.12278644  0.55125320    -0.27000
C1926       C  0.36644290  0.14873543  0.56115872    -0.15100
C1927       C  0.35736022  0.15386784  0.60073501     0.35500
C1928       C  0.37599249  0.13140466  0.62907942    -0.26500
C1929       C  0.40464505  0.10473604  0.61914372    -0.15700
C1930       C  0.41487037  0.10111408  0.57956989     0.36600
N1931       N  0.44544897  0.07625160  0.56775533    -0.90000
H1932       H  0.40397353  0.11941710  0.52127560     0.17700
H1933       H  0.36840359  0.13537417  0.65923744     0.17700
N1934       N  0.33045035  0.18294031  0.61223522    -0.89000
H1935       H  0.46650649  0.09327835  0.55296931     0.35100
H1936       H  0.43416363  0.05608988  0.54846160     0.40200
H1937       H  0.34238250  0.21007478  0.60395276     0.39800
H1938       H  0.32710286  0.18309037  0.64235391     0.34700
C1939       C  0.56310555  0.14811056  0.61129051    -0.27000
C1940       C  0.57357182  0.10892139  0.61537910    -0.15100
C1941       C  0.60112650  0.09385668  0.58921878     0.35500
C1942       C  0.61740595  0.11836119  0.56005659    -0.26500
C1943       C  0.60731093  0.15766629  0.55620717    -0.15700
C1944       C  0.57948563  0.17245213  0.58196413     0.36600
N1945       N  0.56843545  0.21233329  0.57995038    -0.90000
H1946       H  0.54206064  0.15992490  0.63116316     0.17700
H1947       H  0.63884437  0.10670058  0.54049777     0.17700
N1948       N  0.61414336  0.05440374  0.59182338    -0.89000
H1949       H  0.55608800  0.21775474  0.55301789     0.35100
H1950       H  0.59331217  0.22989499  0.58212775     0.40200
H1951       H  0.60122956  0.03894875  0.61502891     0.39800
H1952       H  0.64378845  0.05545628  0.59739274     0.34700
C1953       C  0.58427734  0.88895562  0.55590944    -0.27000
C1954       C  0.60840594  0.85873987  0.56772846    -0.15100
C1955       C  0.61293148  0.85157812  0.60780014     0.35500
C1956       C  0.59510752  0.87610538  0.63479745    -0.26500
C1957       C  0.57190128  0.90741555  0.62300492    -0.15700
C1958       C  0.56607002  0.91324071  0.58267747     0.36600
N1959       N  0.54190761  0.94382889  0.56859939    -0.90000
H1960       H  0.58037393  0.89460136  0.52529404     0.17700
H1961       H  0.59926987  0.87039044  0.66537615     0.17700
N1962       N  0.63489558  0.81899729  0.62107361    -0.89000
H1963       H  0.53831297  0.94209299  0.53867728     0.35100
H1964       H  0.55652848  0.97020314  0.57315799     0.40200
H1965       H  0.62060644  0.79369222  0.61221453     0.39800
H1966       H  0.63535364  0.81763466  0.65132060     0.34700
C1967       C  0.41952244  0.90748286  0.59137178    -0.27000
C1968       C  0.40433582  0.90808907  0.62931177    -0.15100
C1969       C  0.37123671  0.88484110  0.63880611     0.35500
C1970       C  0.35390339  0.86225127  0.61033124    -0.26500
C1971       C  0.36850101  0.86258571  0.57220889    -0.15700
C1972       C  0.40181730  0.88531244  0.56282724     0.36600
N1973       N  0.41702682  0.88739947  0.52407901    -0.90000
H1974       H  0.44505477  0.92480170  0.58342657     0.17700
H1975       H  0.32848006  0.84467640  0.61805177     0.17700
N1976       N  0.35435163  0.88474070  0.67693572    -0.89000
H1977       H  0.44565263  0.87820206  0.52458159     0.35100
H1978       H  0.41728786  0.91649799  0.51471489     0.40200
H1979       H  0.35387619  0.85616017  0.68786374     0.39800
H1980       H  0.32577637  0.89382988  0.67475093     0.34700
C1981       C  0.46393713  0.21828521  0.75596928    -0.27000
C1982       C  0.49493337  0.19442268  0.76540303    -0.15100
C1983       C  0.52675430  0.21086806  0.78495780     0.35500
C1984       C  0.52688406  0.25042390  0.79425110    -0.26500
C1985       C  0.49551825  0.27464239  0.78585685    -0.15700
C1986       C  0.46377786  0.25773944  0.76545381     0.36600
N1987       N  0.43070505  0.27928421  0.75352635    -0.90000
H1988       H  0.43937627  0.20618621  0.74084398     0.17700
H1989       H  0.55191384  0.26129942  0.80883891     0.17700
N1990       N  0.55851930  0.18712395  0.79666850    -0.89000
H1991       H  0.43888504  0.30117533  0.73360485     0.35100
H1992       H  0.41673485  0.29110406  0.77732058     0.40200
H1993       H  0.54797941  0.16734706  0.81786458     0.39800
H1994       H  0.58013677  0.20372824  0.80977319     0.34700
C1995       C  0.51617263  0.77801517  0.81996027    -0.27000
C1996       C  0.48838298  0.75146986  0.80621793    -0.15100
C1997       C  0.45717684  0.76621808  0.78439919     0.35500
C1998       C  0.45645268  0.80568627  0.77386479    -0.26500
C1999       C  0.48616144  0.83114465  0.78475253    -0.15700
C2000       C  0.51509773  0.81755355  0.80968159     0.36600
N2001       N  0.54326867  0.84394979  0.82508541    -0.90000
H2002       H  0.53973165  0.76871251  0.83772461     0.17700
H2003       H  0.43324691  0.81610896  0.75588358     0.17700
N2004       N  0.42697339  0.74076485  0.77129195    -0.89000
H2005       H  0.57077404  0.83468524  0.81697055     0.35100
H2006       H  0.54107787  0.84242184  0.85530530     0.40200
H2007       H  0.42639685  0.74263992  0.74106077     0.39800
H2008       H  0.40060767  0.75067664  0.78204736     0.34700
C2009       C  0.41323930  0.12373258  0.90538506    -0.27000
C2010       C  0.39609603  0.09769067  0.87971706    -0.15100
C2011       C  0.35653645  0.08790276  0.88370206     0.35500
C2012       C  0.33446953  0.10465551  0.91301307    -0.26500
C2013       C  0.35133118  0.13132640  0.93817410    -0.15700
C2014       C  0.39099779  0.14084099  0.93451109     0.36600
N2015       N  0.40887211  0.16693048  0.96096792    -0.90000
H2016       H  0.44385782  0.13083646  0.90273218     0.17700
H2017       H  0.30400397  0.09693198  0.91603914     0.17700
N2018       N  0.33904413  0.06008737  0.85869683    -0.89000
H2019       H  0.42144343  0.19010186  0.94491106     0.35100
H2020       H  0.43098487  0.15215552  0.97497325     0.40200
H2021       H  0.31604769  0.07340224  0.84469136     0.39800
H2022       H  0.32772099  0.03707130  0.87587216     0.34700
C2023       C  0.34720489  0.92043235  0.87735815    -0.27000
C2024       C  0.38517684  0.93221253  0.88684228    -0.15100
C2025       C  0.39705283  0.92681571  0.92563775     0.35500
C2026       C  0.37150374  0.90907405  0.95320349    -0.26500
C2027       C  0.33428449  0.89624338  0.94325685    -0.15700
C2028       C  0.32172735  0.90266201  0.90488534     0.36600
N2029       N  0.28374315  0.89092672  0.89258538    -0.90000
H2030       H  0.33714130  0.92472522  0.84804978     0.17700
H2031       H  0.38166042  0.90294957  0.98214323     0.17700
N2032       N  0.43569223  0.93731470  0.93661195    -0.89000
H2033       H  0.26955697  0.91600139  0.88350589     0.35100
H2034       H  0.26714023  0.87897947  0.91550865     0.40200
H2035       H  0.45415457  0.91872554  0.92207475     0.39800
H2036       H  0.43963195  0.93198497  0.96618660     0.34700
C2037       C  0.59914091  0.89935458  0.94385282    -0.27000
C2038       C  0.63730139  0.89049699  0.93395364    -0.15100
C2039       C  0.65195285  0.90069887  0.89697538     0.35500
C2040       C  0.62790650  0.91892362  0.87000894    -0.26500
C2041       C  0.58935202  0.92763454  0.87962473    -0.15700
C2042       C  0.57497848  0.91786908  0.91716990     0.36600
N2043       N  0.53549249  0.92521709  0.92756881    -0.90000
H2044       H  0.58771928  0.89051425  0.97207869     0.17700
H2045       H  0.63959793  0.92655863  0.84152082     0.17700
N2046       N  0.69128863  0.89283950  0.88687361    -0.89000
H2047       H  0.52972605  0.91693317  0.95639954     0.35100
H2048       H  0.51832516  0.90720876  0.91055561     0.40200
H2049       H  0.70502237  0.91919198  0.87880317     0.39800
H2050       H  0.69124436  0.87502547  0.86272420     0.34700
C2051       C  0.62040455  0.12422436  0.86308873    -0.27000
C2052       C  0.59408529  0.09436676  0.87487662    -0.15100
C2053       C  0.59358056  0.08173380  0.91420515     0.35500
C2054       C  0.61763529  0.10016490  0.94075514    -0.26500
C2055       C  0.64249585  0.13091065  0.92910997    -0.15700
C2056       C  0.64476713  0.14241933  0.88973256     0.36600
N2057       N  0.67189415  0.17240351  0.87697405    -0.90000
H2058       H  0.62185443  0.13376213  0.83302442     0.17700
H2059       H  0.61603037  0.09096609  0.97094263     0.17700
N2060       N  0.56889778  0.05013684  0.92756989    -0.89000
H2061       H  0.67000466  0.17739413  0.84711399     0.35100
H2062       H  0.69971161  0.16226580  0.88205218     0.40200
H2063       H  0.55082196  0.06029411  0.94951708     0.39800
H2064       H  0.58622334  0.02855738  0.93955195     0.34700
loop_ 
_geom_bond_atom_site_label_1 
_geom_bond_atom_site_label_2 
_geom_bond_distance 
_geom_bond_site_symmetry_2 
_ccdc_geom_bond_type 
O1           C12   1.289       .  A
O1          Eu37   2.448       .  S
O2           C13   1.293       .  A
O2          Eu36   2.471       .  S
O3           C14   1.290       .  A
O3           Eu9   2.453       .  S
O4           C15   1.291       .  A
O4           Eu9   2.458       .  S
O5           C15   1.294       .  A
O5          Eu39   2.474       .  S
O6           C14   1.292   1_565  A
O6          Eu38   2.456       .  S
O7           C13   1.293       .  A
O7           Eu9   2.473       .  S
O8           C12   1.293       .  A
O8           Eu9   2.462       .  S
Eu9          O19   2.358       .  S
Eu9          O11   2.348       .  S
Eu9          O10   2.342       .  S
Eu9          O17   2.361       .  S
O10         Eu39   2.351       .  S
O10         Eu36   2.357       .  S
O11         Eu37   2.355       .  S
O11         Eu38   2.346   1_545  S
C12        C2052   1.490       .  S
C13        C1940   1.483       .  S
C14        C1912   1.485       .  S
C15        C1982   1.491       .  S
H16          O17   0.963       .  S
O17         Eu38   2.358   1_545  S
O17         Eu36   2.332       .  S
H18          O19   0.965       .  S
O19         Eu37   2.351       .  S
O19         Eu39   2.359       .  S
O20          C43   1.291       .  A
O20         Eu36   2.446   1_565  S
O21          C44   1.297       .  A
O21         Eu37   2.491   1_565  S
O22          C45   1.294       .  A
O22         Eu38   2.475       .  S
O23          C46   1.293       .  A
O23         Eu39   2.463       .  S
O24          C47   1.291       .  A
O24         Eu39   2.460       .  S
O25          C48   1.290       .  A
O25         Eu38   2.447       .  S
O26          C49   1.291       .  A
O26         Eu40   2.456       .  S
O27          C50   1.293   1_565  A
O27         Eu40   2.467       .  S
O28          C49   1.290       .  A
O28         Eu38   2.449       .  S
O29          C50   1.293       .  A
O29         Eu39   2.467       .  S
O30          C45   1.293       .  A
O30         Eu36   2.476   1_565  S
O31          C48   1.294       .  A
O31         Eu37   2.471   1_565  S
O32          C47   1.289       .  A
O32         Eu37   2.448       .  S
O33          C46   1.290       .  A
O33         Eu36   2.453       .  S
O34          C43   1.289       .  A
O34         Eu40   2.446       .  S
O35          C44   1.293       .  A
O35         Eu40   2.468       .  S
Eu36         O54   2.349       .  S
Eu36         O42   2.354   1_545  S
Eu37         O41   2.354       .  S
Eu37         O52   2.330   1_545  S
Eu38         O52   2.370       .  S
Eu38         O42   2.341       .  S
Eu39         O41   2.352       .  S
Eu39         O54   2.358       .  S
Eu40         O41   2.343   1_565  S
Eu40         O52   2.357       .  S
Eu40         O54   2.358   1_565  S
Eu40         O42   2.360       .  S
C43        C1968   1.483       .  S
C44        C2024   1.505       .  S
C45        C1957   1.510       .  S
C46        C1929   1.493       .  S
C47        C2010   1.466       .  S
C48        C2041   1.486       .  S
C49        C1999   1.473       .  S
C50        C1898   1.489       .  S
H51          O52   0.966       .  S
H53          O54   0.965       .  S
C55          C56   1.533       .  S
C55          C61   1.521       .  S
C55          C59   1.543       .  S
C55        C1856   1.529       .  S
C56          H63   1.087       .  S
C56          C57   1.365       .  D
C57          C58   1.551       .  S
C57        C1943   1.493       .  S
C58          C62   1.550       .  S
C58          C60   1.540       .  S
C58          H64   1.110       .  S
C59          H65   1.082       .  S
C59          C60   1.371       .  D
C60        C1873   1.477       .  S
C61          H66   1.088       .  S
C61          C62   1.357       .  D
C62        C1887   1.488       .  S
O67          C78   1.292       .  A
O67        Eu103   2.452       .  S
O68          C79   1.292       .  A
O68        Eu102   2.465       .  S
O69          C80   1.290       .  A
O69         Eu75   2.454       .  S
O70          C81   1.286       .  A
O70         Eu75   2.432       .  S
O71          C81   1.290       .  A
O71        Eu105   2.449       .  S
O72          C80   1.293   1_565  A
O72        Eu104   2.469       .  S
O73          C79   1.293       .  A
O73         Eu75   2.475       .  S
O74          C78   1.290       .  A
O74         Eu75   2.452       .  S
Eu75         O85   2.355       .  S
Eu75         O77   2.347       .  S
Eu75         O76   2.356       .  S
Eu75         O83   2.335       .  S
O76        Eu105   2.354       .  S
O76        Eu102   2.338       .  S
O77        Eu103   2.353       .  S
O77        Eu104   2.347   1_545  S
C78        C1870   1.487       .  S
C79        C1800   1.476       .  S
C80        C1716   1.493       .  S
C81        C1772   1.478       .  S
H82          O83   0.965       .  S
O83        Eu104   2.342   1_545  S
O83        Eu102   2.363       .  S
H84          O85   0.967       .  S
O85        Eu103   2.360       .  S
O85        Eu105   2.341       .  S
O86         C109   1.288       .  A
O86        Eu102   2.445   1_565  S
O87         C110   1.292       .  A
O87        Eu103   2.467   1_565  S
O88         C111   1.290       .  A
O88        Eu104   2.445       .  S
O89         C112   1.292       .  A
O89        Eu105   2.458       .  S
O90         C113   1.290       .  A
O90        Eu105   2.446       .  S
O91         C114   1.289       .  A
O91        Eu104   2.442       .  S
O92         C115   1.290       .  A
O92        Eu106   2.449       .  S
O93         C116   1.289   1_565  A
O93        Eu106   2.444       .  S
O94         C115   1.292       .  A
O94        Eu104   2.463       .  S
O95         C116   1.291       .  A
O95        Eu105   2.453       .  S
O96         C111   1.289       .  A
O96        Eu102   2.441   1_565  S
O97         C114   1.295       .  A
O97        Eu103   2.478   1_565  S
O98         C113   1.297       .  A
O98        Eu103   2.491       .  S
O99         C112   1.293       .  A
O99        Eu102   2.470       .  S
O100        C109   1.296       .  A
O100       Eu106   2.479       .  S
O101        C110   1.295       .  A
O101       Eu106   2.485       .  S
Eu102       O120   2.353       .  S
Eu102       O108   2.354   1_545  S
Eu103       O107   2.345       .  S
Eu103       O118   2.367   1_545  S
Eu104       O118   2.347       .  S
Eu104       O108   2.353       .  S
Eu105       O107   2.356       .  S
Eu105       O120   2.330       .  S
Eu106       O107   2.355   1_565  S
Eu106       O118   2.349       .  S
Eu106       O120   2.352   1_565  S
Eu106       O108   2.352       .  S
C109       C1831   1.488       .  S
C110       C1730   1.483       .  S
C111       C1814   1.479       .  S
C112       C1842   1.495       .  S
C113       C1761   1.493       .  S
C114       C1744   1.475       .  S
C115       C1789   1.494       .  S
C116       C1702   1.472       .  S
H117        O118   0.965       .  S
H119        O120   0.965       .  S
C121        C122   1.535   1_554  S
C121        C127   1.519       .  S
C121        C125   1.546       .  S
C121       C1674   1.535   1_554  S
C122        H129   1.086       .  S
C122        C123   1.365       .  D
C123        C124   1.549   1_556  S
C123       C2027   1.490       .  S
C124        C128   1.548       .  S
C124        C126   1.549       .  S
C124        H130   1.109       .  S
C125        H131   1.079       .  S
C125        C126   1.374       .  D
C126       C1828   1.496       .  S
C127        H132   1.088       .  S
C127        C128   1.354       .  D
C128       C1688   1.489       .  S
C133        C134   1.548   1_556  S
C133        C139   1.532   1_556  S
C133        C137   1.543       .  S
C133       C1646   1.539       .  S
C134        H141   1.082       .  S
C134        C135   1.364       .  D
C135        C136   1.530   1_554  S
C135       C1817   1.478       .  S
C136        C140   1.527   1_556  S
C136        C138   1.535       .  S
C136        H142   1.110   1_556  S
C137        H143   1.086       .  S
C137        C138   1.369       .  D
C138       C2038   1.476       .  S
C139        H144   1.087       .  S
C139        C140   1.364       .  D
C140       C1660   1.474       .  S
C145        C146   1.543       .  S
C145        C151   1.549       .  S
C145        C149   1.549       .  S
C145       C1618   1.558       .  S
C146        H153   1.086       .  S
C146        C147   1.364       .  D
C147        C148   1.530       .  S
C147       C1747   1.475       .  S
C148        C152   1.528       .  S
C148        C150   1.542       .  S
C148        H154   1.111       .  S
C149        H155   1.082       .  S
C149        C150   1.375       .  D
C150       C1954   1.502       .  S
C151        H156   1.079       .  S
C151        C152   1.363       .  D
C152       C1632   1.482       .  S
C157        C158   1.549       .  S
C157        C163   1.530   1_554  S
C157        C161   1.543   1_554  S
C157       C1593   1.539       .  S
C158        H165   1.083       .  S
C158        C159   1.370       .  D
C159        C160   1.538   1_554  S
C159       C1845   1.485       .  S
C160        C164   1.535       .  S
C160        C162   1.531       .  S
C160        H166   1.111       .  S
C161        H167   1.086       .  S
C161        C162   1.365       .  D
C162       C2013   1.473       .  S
C163        H168   1.086       .  S
C163        C164   1.363       .  D
C164       C1607   1.483       .  S
C169        C170   1.536       .  S
C169        C175   1.518       .  S
C169        C173   1.538   1_556  S
C169       C1565   1.519       .  S
C170        H177   1.086       .  S
C170        C171   1.368       .  D
C171        C172   1.541       .  S
C171       C2055   1.478       .  S
C172        C176   1.547       .  S
C172        C174   1.545   1_556  S
C172        H178   1.110       .  S
C173        H179   1.083       .  S
C173        C174   1.365       .  D
C174       C1803   1.486       .  S
C175        H180   1.088       .  S
C175        C176   1.356       .  D
C176       C1576   1.484       .  S
C181        C182   1.541       .  S
C181        C187   1.543       .  S
C181        C185   1.548       .  S
C181       C1534   1.551       .  S
C182        H189   1.086       .  S
C182        C183   1.370       .  D
C183        C184   1.541       .  S
C183       C1758   1.489       .  S
C184        C188   1.533       .  S
C184        C186   1.538       .  S
C184        H190   1.111       .  S
C185        H191   1.084       .  S
C185        C186   1.372       .  D
C186       C1926   1.493       .  S
C187        H192   1.084       .  S
C187        C188   1.361       .  D
C188       C1548   1.481       .  S
C193        C194   1.544       .  S
C193        C199   1.518       .  S
C193        C197   1.529       .  S
C193       C1509   1.532       .  S
C194        H201   1.082       .  S
C194        C195   1.374       .  D
C195        C196   1.546       .  S
C195       C1971   1.483       .  S
C196        C200   1.554       .  S
C196        C198   1.544       .  S
C196        H202   1.106       .  S
C197        H203   1.086       .  S
C197        C198   1.361       .  D
C198       C1733   1.488       .  S
C199        H204   1.085       .  S
C199        C200   1.362       .  D
C200       C1520   1.506       .  S
O205        C216   1.291       .  A
O205       Eu241   2.465       .  S
O206        C217   1.289   1_455  A
O206       Eu240   2.443       .  S
O207        C218   1.288       .  A
O207       Eu213   2.440       .  S
O208        C219   1.290       .  A
O208       Eu213   2.456       .  S
O209        C219   1.292       .  A
O209       Eu243   2.465       .  S
O210        C218   1.292       .  A
O210       Eu242   2.463       .  S
O211        C217   1.291       .  A
O211       Eu213   2.461       .  S
O212        C216   1.293       .  A
O212       Eu213   2.475       .  S
Eu213       O223   2.345       .  S
Eu213       O215   2.348       .  S
Eu213       O214   2.345       .  S
Eu213       O221   2.349       .  S
O214       Eu243   2.351       .  S
O214       Eu240   2.353   1_655  S
O215       Eu241   2.343       .  S
O215       Eu242   2.350       .  S
C216       C1621   1.482       .  S
C217       C1366   1.491       .  S
C218       C1464   1.460       .  S
C219       C1436   1.468       .  S
H220        O221   0.965       .  S
O221       Eu242   2.370       .  S
O221       Eu240   2.349   1_655  S
H222        O223   0.964       .  S
O223       Eu241   2.347       .  S
O223       Eu243   2.367       .  S
O224        C247   1.290       .  A
O224       Eu240   2.452       .  S
O225        C248   1.291       .  A
O225       Eu241   2.457       .  S
O226        C249   1.294       .  A
O226       Eu242   2.476   1_455  S
O227        C250   1.290       .  A
O227       Eu243   2.455   1_455  S
O228        C251   1.296       .  A
O228       Eu243   2.484       .  S
O229        C252   1.293       .  A
O229       Eu242   2.470       .  S
O230        C253   1.290       .  A
O230       Eu244   2.447       .  S
O231        C254   1.293       .  A
O231       Eu244   2.465       .  S
O232        C253   1.296       .  A
O232       Eu242   2.485   1_455  S
O233        C254   1.295       .  A
O233       Eu243   2.483   1_455  S
O234        C249   1.294       .  A
O234       Eu240   2.471       .  S
O235        C252   1.288       .  A
O235       Eu241   2.439       .  S
O236        C251   1.288       .  A
O236       Eu241   2.442       .  S
O237        C250   1.294       .  A
O237       Eu240   2.469       .  S
O238        C247   1.288       .  A
O238       Eu244   2.438       .  S
O239        C248   1.285   1_455  A
O239       Eu244   2.427       .  S
Eu240       O258   2.351       .  S
Eu240       O246   2.348       .  S
Eu241       O245   2.350       .  S
Eu241       O256   2.353       .  S
Eu242       O256   2.365       .  S
Eu242       O246   2.346   1_655  S
Eu243       O245   2.337       .  S
Eu243       O258   2.369   1_655  S
Eu244       O245   2.346   1_455  S
Eu244       O256   2.352   1_455  S
Eu244       O258   2.339       .  S
Eu244       O246   2.346       .  S
C247       C1506   1.473       .  S
C248       C1380   1.472       .  S
C249       C1450   1.492       .  S
C250       C1394   1.497       .  S
C251       C1425   1.478       .  S
C252       C1478   1.474       .  S
C253       C1492   1.498       .  S
C254       C1408   1.504       .  S
H255        O256   0.966       .  S
H257        O258   0.965       .  S
O259        C270   1.294       .  A
O259       Eu295   2.469       .  S
O260        C271   1.291   1_455  A
O260       Eu294   2.455       .  S
O261        C272   1.289       .  A
O261       Eu267   2.453       .  S
O262        C273   1.288       .  A
O262       Eu267   2.443       .  S
O263        C273   1.296       .  A
O263       Eu297   2.480       .  S
O264        C272   1.297       .  A
O264       Eu296   2.489       .  S
O265        C271   1.290       .  A
O265       Eu267   2.446       .  S
O266        C270   1.290       .  A
O266       Eu267   2.453       .  S
Eu267       O277   2.357       .  S
Eu267       O269   2.338       .  S
Eu267       O268   2.345       .  S
Eu267       O275   2.359       .  S
O268       Eu297   2.354       .  S
O268       Eu294   2.355   1_655  S
O269       Eu295   2.343       .  S
O269       Eu296   2.348       .  S
C270       C1859   1.482       .  S
C271       C1229   1.471       .  S
C272       C1257   1.502       .  S
C273       C1341   1.498       .  S
H274        O275   0.964       .  S
O275       Eu296   2.339       .  S
O275       Eu294   2.369   1_655  S
H276        O277   0.965       .  S
O277       Eu295   2.355       .  S
O277       Eu297   2.331       .  S
O278        C301   1.291       .  A
O278       Eu294   2.461       .  S
O279        C302   1.291       .  A
O279       Eu295   2.453       .  S
O280        C303   1.292       .  A
O280       Eu296   2.464   1_455  S
O281        C304   1.289       .  A
O281       Eu297   2.443   1_455  S
O282        C305   1.293       .  A
O282       Eu297   2.472       .  S
O283        C306   1.293       .  A
O283       Eu296   2.462       .  S
O284        C307   1.291       .  A
O284       Eu298   2.459       .  S
O285        C308   1.292       .  A
O285       Eu298   2.462       .  S
O286        C307   1.291       .  A
O286       Eu296   2.462   1_455  S
O287        C308   1.287       .  A
O287       Eu297   2.442   1_455  S
O288        C303   1.293       .  A
O288       Eu294   2.471       .  S
O289        C306   1.292       .  A
O289       Eu295   2.466       .  S
O290        C305   1.291       .  A
O290       Eu295   2.453       .  S
O291        C304   1.296       .  A
O291       Eu294   2.481       .  S
O292        C301   1.297       .  A
O292       Eu298   2.498       .  S
O293        C302   1.295   1_455  A
O293       Eu298   2.476       .  S
Eu294       O312   2.353       .  S
Eu294       O300   2.351       .  S
Eu295       O299   2.352       .  S
Eu295       O310   2.361       .  S
Eu296       O310   2.345       .  S
Eu296       O300   2.369   1_655  S
Eu297       O299   2.358       .  S
Eu297       O312   2.351   1_655  S
Eu298       O299   2.355   1_455  S
Eu298       O310   2.372   1_455  S
Eu298       O312   2.356       .  S
Eu298       O300   2.351       .  S
C301       C1537   1.486       .  S
C302       C1240   1.488       .  S
C303       C1296   1.481       .  S
C304       C1352   1.491       .  S
C305       C1327   1.496       .  S
C306       C1268   1.497       .  S
C307       C1282   1.469       .  S
C308       C1310   1.466       .  S
H309        O310   0.967       .  S
H311        O312   0.967       .  S
C313        C314   1.551       .  S
C313        C319   1.525       .  S
C313        C317   1.529       .  S
C313       C1198   1.527       .  S
C314        H321   1.083       .  S
C314        C315   1.373       .  D
C315        C316   1.538       .  S
C315       C1271   1.490       .  S
C316        C320   1.550       .  S
C316        C318   1.548       .  S
C316        H322   1.108       .  S
C317        H323   1.087       .  S
C317        C318   1.359       .  D
C318       C1422   1.478       .  S
C319        H324   1.087       .  S
C319        C320   1.359       .  D
C320       C1212   1.494       .  S
C325        C326   1.541       .  S
C325        C331   1.533       .  S
C325        C329   1.554       .  S
C325       C1170   1.546       .  S
C326        H333   1.086       .  S
C326        C327   1.370       .  D
C327        C328   1.545       .  S
C327       C1411   1.493       .  S
C328        C332   1.540       .  S
C328        C330   1.532       .  S
C328        H334   1.111       .  S
C329        H335   1.079       .  S
C329        C330   1.364       .  D
C330       C1285   1.481       .  S
C331        H336   1.086       .  S
C331        C332   1.362       .  D
C332       C1184   1.490       .  S
C337        C338   1.540   1_545  S
C337        C343   1.534       .  S
C337        C341   1.555       .  S
C337       C1719   1.546       .  S
C338        H345   1.085       .  S
C338        C339   1.365       .  D
C339        C340   1.530   1_565  S
C339       C1467   1.472       .  S
C340        C344   1.532       .  S
C340        C342   1.537       .  S
C340        H346   1.111       .  S
C341        H347   1.081       .  S
C341        C342   1.372       .  D
C342       C1338   1.493       .  S
C343        H348   1.086       .  S
C343        C344   1.361       .  D
C344       C1156   1.481   1_545  S
C349        C350   1.545       .  S
C349        C355   1.525   1_545  S
C349        C353   1.538   1_545  S
C349       C1915   1.528       .  S
C350        H357   1.081       .  S
C350        C351   1.369       .  D
C351        C352   1.543   1_545  S
C351       C1324   1.485       .  S
C352        C356   1.547       .  S
C352        C354   1.532       .  S
C352        H358   1.107       .  S
C353        H359   1.086       .  S
C353        C354   1.362       .  D
C354       C1481   1.472       .  S
C355        H360   1.087       .  S
C355        C356   1.359       .  D
C356       C1142   1.490       .  S
C361        C362   1.544       .  S
C361        C367   1.533       .  S
C361        C365   1.558       .  S
C361       C1114   1.549       .  S
C362        H369   1.085       .  S
C362        C363   1.370       .  D
C363        C364   1.541       .  S
C363       C1439   1.492       .  S
C364        C368   1.535       .  S
C364        C366   1.537       .  S
C364        H370   1.109       .  S
C365        H371   1.081       .  S
C365        C366   1.372       .  D
C366       C1254   1.501       .  S
C367        H372   1.087       .  S
C367        C368   1.361       .  D
C368       C1128   1.479       .  S
C373        C374   1.543       .  S
C373        C379   1.522       .  S
C373        C377   1.537       .  S
C373       C1086   1.525       .  S
C374        H381   1.083       .  S
C374        C375   1.366       .  D
C375        C376   1.544       .  S
C375       C1299   1.484       .  S
C376        C380   1.545       .  S
C376        C378   1.544       .  S
C376        H382   1.111       .  S
C377        H383   1.086       .  S
C377        C378   1.366       .  D
C378       C1397   1.479       .  S
C379        H384   1.088       .  S
C379        C380   1.354       .  D
C380       C1103   1.481       .  S
C385        C386   1.553       .  S
C385        C391   1.533       .  S
C385        C389   1.531   1_545  S
C385       C1705   1.542       .  S
C386        H393   1.077       .  S
C386        C387   1.370       .  D
C387        C388   1.542       .  S
C387       C1355   1.501       .  S
C388        C392   1.554       .  S
C388        C390   1.548   1_545  S
C388        H394   1.101       .  S
C389        H395   1.087       .  S
C389        C390   1.362       .  D
C390       C1453   1.484       .  S
C391        H396   1.086       .  S
C391        C392   1.365       .  D
C392       C1075   1.509       .  S
C397        C398   1.542   1_545  S
C397        C403   1.534       .  S
C397        C401   1.551       .  S
C397       C1901   1.540       .  S
C398        H405   1.085       .  S
C398        C399   1.371       .  D
C399        C400   1.541   1_565  S
C399       C1495   1.488       .  S
C400        C404   1.534       .  S
C400        C402   1.527       .  S
C400        H406   1.111       .  S
C401        H407   1.080       .  S
C401        C402   1.364       .  D
C402       C1313   1.471       .  S
C403        H408   1.086       .  S
C403        C404   1.363       .  D
C404       C1061   1.484       .  S
O409        C420   1.294   1_556  A
O409       Eu445   2.468       .  S
O410        C421   1.289       .  A
O410       Eu444   2.449       .  S
O411        C422   1.289       .  A
O411       Eu417   2.442       .  S
O412        C423   1.290       .  A
O412       Eu417   2.449       .  S
O413        C423   1.290       .  A
O413       Eu447   2.447       .  S
O414        C422   1.293       .  A
O414       Eu446   2.471       .  S
O415        C421   1.297       .  A
O415       Eu417   2.492       .  S
O416        C420   1.291       .  A
O416       Eu417   2.464       .  S
Eu417       O427   2.351       .  S
Eu417       O419   2.358       .  S
Eu417       O418   2.344       .  S
Eu417       O425   2.342       .  S
O418       Eu447   2.346       .  S
O418       Eu444   2.347       .  S
O419       Eu445   2.357   1_554  S
O419       Eu446   2.346       .  S
C420       C1649   1.498       .  S
C421       C1117   1.501       .  S
C422        C960   1.470       .  S
C423       C1044   1.486       .  S
H424        O425   0.965       .  S
O425       Eu446   2.363       .  S
O425       Eu444   2.347       .  S
H426        O427   0.969       .  S
O427       Eu445   2.366   1_554  S
O427       Eu447   2.366       .  S
O428        C451   1.289       .  A
O428       Eu444   2.449       .  S
O429        C452   1.296       .  A
O429       Eu445   2.483       .  S
O430        C453   1.294       .  A
O430       Eu446   2.472       .  S
O431        C454   1.292       .  A
O431       Eu447   2.466       .  S
O432        C455   1.293       .  A
O432       Eu447   2.467   1_556  S
O433        C456   1.293       .  A
O433       Eu446   2.469   1_556  S
O434        C457   1.293       .  A
O434       Eu448   2.465       .  S
O435        C458   1.292       .  A
O435       Eu448   2.470       .  S
O436        C457   1.292       .  A
O436       Eu446   2.465   1_556  S
O437        C458   1.289       .  A
O437       Eu447   2.456   1_556  S
O438        C453   1.291       .  A
O438       Eu444   2.458       .  S
O439        C456   1.295       .  A
O439       Eu445   2.473       .  S
O440        C455   1.292       .  A
O440       Eu445   2.461       .  S
O441        C454   1.292       .  A
O441       Eu444   2.462       .  S
O442        C451   1.285   1_556  A
O442       Eu448   2.414       .  S
O443        C452   1.281       .  A
O443       Eu448   2.411       .  S
Eu444       O462   2.351       .  S
Eu444       O450   2.348       .  S
Eu445       O449   2.350       .  S
Eu445       O460   2.345       .  S
Eu446       O460   2.360   1_554  S
Eu446       O450   2.348       .  S
Eu447       O449   2.348   1_554  S
Eu447       O462   2.364       .  S
Eu448       O449   2.346       .  S
Eu448       O460   2.338       .  S
Eu448       O462   2.341   1_556  S
Eu448       O450   2.347   1_556  S
C451       C1562   1.476       .  S
C452       C1201   1.486       .  S
C453        C949   1.478       .  S
C454       C1005   1.474       .  S
C455       C1033   1.496       .  S
C456        C977   1.496       .  S
C457        C988   1.499       .  S
C458       C1016   1.471       .  S
H459        O460   0.964       .  S
H461        O462   0.966       .  S
O463        C474   1.290       .  A
O463       Eu499   2.451       .  S
O464        C475   1.292       .  A
O464       Eu498   2.462       .  S
O465        C476   1.289       .  A
O465       Eu471   2.450       .  S
O466        C477   1.288       .  A
O466       Eu471   2.444       .  S
O467        C477   1.295       .  A
O467       Eu501   2.474       .  S
O468        C476   1.296       .  A
O468       Eu500   2.491   1_554  S
O469        C475   1.289       .  A
O469       Eu471   2.437       .  S
O470        C474   1.289   1_554  A
O470       Eu471   2.447       .  S
Eu471       O481   2.358   1_554  S
Eu471       O473   2.341   1_554  S
Eu471       O472   2.342       .  S
Eu471       O479   2.357       .  S
O472       Eu501   2.357       .  S
O472       Eu498   2.349       .  S
O473       Eu499   2.355       .  S
O473       Eu500   2.362       .  S
C474       C1677   1.470       .  S
C475       C1089   1.482       .  S
C476        C865   1.478       .  S
C477        C921   1.498       .  S
H478        O479   0.966       .  S
O479       Eu500   2.331   1_554  S
O479       Eu498   2.354       .  S
H480        O481   0.964       .  S
O481       Eu499   2.349       .  S
O481       Eu501   2.337   1_556  S
O482        C505   1.291       .  A
O482       Eu498   2.457       .  S
O483        C506   1.288       .  A
O483       Eu499   2.440       .  S
O484        C507   1.292       .  A
O484       Eu500   2.467   1_554  S
O485        C508   1.291       .  A
O485       Eu501   2.448       .  S
O486        C509   1.293       .  A
O486       Eu501   2.471   1_556  S
O487        C510   1.289       .  A
O487       Eu500   2.447       .  S
O488        C511   1.287       .  A
O488       Eu502   2.434       .  S
O489        C512   1.289       .  A
O489       Eu502   2.440       .  S
O490        C511   1.294       .  A
O490       Eu500   2.468       .  S
O491        C512   1.292       .  A
O491       Eu501   2.466   1_556  S
O492        C507   1.295       .  A
O492       Eu498   2.473       .  S
O493        C510   1.290       .  A
O493       Eu499   2.451       .  S
O494        C509   1.293       .  A
O494       Eu499   2.466       .  S
O495        C508   1.292       .  A
O495       Eu498   2.466       .  S
O496        C505   1.296   1_556  A
O496       Eu502   2.482       .  S
O497        C506   1.295       .  A
O497       Eu502   2.480       .  S
Eu498       O516   2.358       .  S
Eu498       O504   2.345   1_554  S
Eu499       O503   2.348       .  S
Eu499       O514   2.355       .  S
Eu500       O514   2.340       .  S
Eu500       O504   2.360       .  S
Eu501       O503   2.354   1_554  S
Eu501       O516   2.344       .  S
Eu502       O503   2.350       .  S
Eu502       O514   2.355       .  S
Eu502       O516   2.355   1_556  S
Eu502       O504   2.351       .  S
C505       C1590   1.500       .  S
C506       C1173   1.480       .  S
C507        C848   1.504       .  S
C508        C932   1.492       .  S
C509        C907   1.494       .  S
C510        C876   1.460       .  S
C511        C834   1.487       .  S
C512        C890   1.489       .  S
H513        O514   0.964       .  S
H515        O516   0.965       .  S
C517        C518   1.550   1_655  S
C517        C523   1.529   1_655  S
C517        C521   1.528       .  S
C517       C1383   1.528       .  S
C518        H525   1.080       .  S
C518        C519   1.370       .  D
C519        C520   1.535       .  S
C519        C879   1.481       .  S
C520        C524   1.547       .  S
C520        C522   1.542   1_455  S
C520        H526   1.109       .  S
C521        H527   1.085       .  S
C521        C522   1.360       .  D
C522       C1030   1.483       .  S
C523        H528   1.086       .  S
C523        C524   1.357       .  D
C524        C823   1.484       .  S
C529        C530   1.551       .  S
C529        C535   1.530       .  S
C529        C533   1.541   1_655  S
C529       C1243   1.534       .  S
C530        H537   1.081       .  S
C530        C531   1.369       .  D
C531        C532   1.539       .  S
C531       C1019   1.485       .  S
C532        C536   1.534       .  S
C532        C534   1.536   1_655  S
C532        H538   1.111       .  S
C533        H539   1.086       .  S
C533        C534   1.366       .  D
C534        C837   1.477       .  S
C535        H540   1.087       .  S
C535        C536   1.357       .  D
C536        C809   1.473       .  S
C541        C542   1.532       .  S
C541        C547   1.522       .  S
C541        C545   1.546       .  S
C541       C1996   1.527       .  S
C542        H549   1.087       .  S
C542        C543   1.362       .  D
C543        C544   1.545       .  S
C543        C904   1.480       .  S
C544        C548   1.548       .  S
C544        C546   1.543       .  S
C544        H550   1.110       .  S
C545        H551   1.081       .  S
C545        C546   1.372       .  D
C546        C974   1.490       .  S
C547        H552   1.087       .  S
C547        C548   1.359       .  D
C548        C792   1.491       .  S
C553        C554   1.547       .  S
C553        C559   1.531       .  S
C553        C557   1.547       .  S
C553       C1786   1.539       .  S
C554        H561   1.083       .  S
C554        C555   1.360       .  D
C555        C556   1.533       .  S
C555        C963   1.474       .  S
C556        C560   1.532       .  S
C556        C558   1.542       .  S
C556        H562   1.109       .  S
C557        H563   1.085       .  S
C557        C558   1.376       .  D
C558        C918   1.495       .  S
C559        H564   1.087       .  S
C559        C560   1.359       .  D
C560        C781   1.477       .  S
C565        C566   1.529   1_655  S
C565        C571   1.526       .  S
C565        C569   1.548       .  S
C565       C1226   1.529       .  S
C566        H573   1.086       .  S
C566        C567   1.368       .  D
C567        C568   1.552   1_455  S
C567        C851   1.496       .  S
C568        C572   1.553       .  S
C568        C570   1.535       .  S
C568        H574   1.110       .  S
C569        H575   1.081       .  S
C569        C570   1.365       .  D
C570       C1002   1.480       .  S
C571        H576   1.085       .  S
C571        C572   1.360       .  D
C572        C767   1.495       .  S
C577        C578   1.545       .  S
C577        C583   1.528       .  S
C577        C581   1.546   1_655  S
C577       C1369   1.535       .  S
C578        H585   1.083       .  S
C578        C579   1.363       .  D
C579        C580   1.533       .  S
C579       C1047   1.480       .  S
C580        C584   1.531       .  S
C580        C582   1.543   1_655  S
C580        H586   1.108       .  S
C581        H587   1.085       .  S
C581        C582   1.375       .  D
C582        C862   1.496       .  S
C583        H588   1.087       .  S
C583        C584   1.357       .  D
C584        C750   1.470       .  S
C589        C590   1.554       .  S
C589        C595   1.530       .  S
C589        C593   1.541       .  S
C589       C1985   1.546       .  S
C590        H597   1.079       .  S
C590        C591   1.370       .  D
C591        C592   1.540       .  S
C591        C991   1.493       .  S
C592        C596   1.532       .  S
C592        C594   1.533       .  S
C592        H598   1.111       .  S
C593        H599   1.086       .  S
C593        C594   1.362       .  D
C594        C893   1.473       .  S
C595        H600   1.086       .  S
C595        C596   1.362       .  D
C596        C736   1.473       .  S
C601        C602   1.539       .  S
C601        C607   1.529       .  S
C601        C605   1.540       .  S
C601       C1775   1.528       .  S
C602        H609   1.086       .  S
C602        C603   1.370       .  D
C603        C604   1.538       .  S
C603        C935   1.488       .  S
C604        C608   1.549       .  S
C604        C606   1.545       .  S
C604        H610   1.107       .  S
C605        H611   1.080       .  S
C605        C606   1.359       .  D
C606        C946   1.483       .  S
C607        H612   1.087       .  S
C607        C608   1.361       .  D
C608        C722   1.492       .  S
O613        C624   1.302       .  A
O613       Eu649   2.533       .  S
O614        C625   1.290       .  A
O614       Eu648   2.460       .  S
O615        C626   1.302       .  A
O615       Eu621   2.526       .  S
O616        C627   1.297       .  A
O616       Eu621   2.501       .  S
O617        C627   1.288       .  A
O617       Eu651   2.433       .  S
O618        C626   1.282       .  A
O618       Eu650   2.398       .  S
O619        C625   1.288       .  A
O619       Eu621   2.438       .  S
O620        C624   1.281       .  A
O620       Eu621   2.389       .  S
Eu621       O631   2.357       .  S
Eu621       O623   2.345       .  S
Eu621       O622   2.358       .  S
Eu621       O629   2.338       .  S
O622       Eu651   2.364       .  S
O622       Eu648   2.358       .  S
O623       Eu649   2.326       .  S
O623       Eu650   2.352       .  S
C624       C1884   1.479       .  S
C625        C739   1.461       .  S
C626       C1215   1.487       .  S
C627       C1551   1.474       .  S
H628        O629   0.964       .  S
O629       Eu650   2.355       .  S
O629       Eu648   2.353       .  S
H630        O631   0.964       .  S
O631       Eu649   2.343       .  S
O631       Eu651   2.346       .  S
O632        C655   1.295       .  A
O632       Eu648   2.492       .  S
O633        C656   1.295       .  A
O633       Eu649   2.487       .  S
O634        C657   1.297       .  A
O634       Eu650   2.505       .  S
O635        C658   1.295       .  A
O635       Eu651   2.491       .  S
O636        C659   1.301       .  A
O636       Eu651   2.525       .  S
O637        C660   1.295       .  A
O637       Eu650   2.487       .  S
O638        C661   1.291       .  A
O638       Eu652   2.461       .  S
O639        C662   1.297       .  A
O639       Eu652   2.503       .  S
O640        C661   1.290       .  A
O640       Eu650   2.451       .  S
O641        C662   1.284       .  A
O641       Eu651   2.405       .  S
O642        C657   1.283       .  A
O642       Eu648   2.409       .  S
O643        C660   1.285       .  A
O643       Eu649   2.426       .  S
O644        C659   1.280       .  A
O644       Eu649   2.382       .  S
O645        C658   1.288       .  A
O645       Eu648   2.437       .  S
O646        C655   1.285       .  A
O646       Eu652   2.422       .  S
O647        C656   1.288       .  A
O647       Eu652   2.435       .  S
Eu648       O666   2.349       .  S
Eu648       O654   2.342       .  S
Eu649       O653   2.350       .  S
Eu649       O664   2.370       .  S
Eu650       O664   2.362       .  S
Eu650       O654   2.336       .  S
Eu651       O653   2.334       .  S
Eu651       O666   2.362       .  S
Eu652       O653   2.334       .  S
Eu652       O664   2.373       .  S
Eu652       O666   2.349       .  S
Eu652       O654   2.349       .  S
C655       C1523   1.470       .  S
C656        C778   1.475       .  S
C657        C795   1.468       .  S
C658       C1187   1.471       .  S
C659        C725   1.484       .  S
C660       C1131   1.471       .  S
C661       C1635   1.468       .  S
C662       C1100   1.481       .  S
H663        O664   0.967       .  S
H665        O666   0.966       .  S
O667        C678   1.296       .  A
O667       Eu703   2.500       .  S
O668        C679   1.294       .  A
O668       Eu702   2.486   1_455  S
O669        C680   1.300       .  A
O669       Eu675   2.516       .  S
O670        C681   1.293       .  A
O670       Eu675   2.478   1_545  S
O671        C681   1.289       .  A
O671       Eu705   2.439   1_556  S
O672        C680   1.281   1_655  A
O672       Eu704   2.408       .  S
O673        C679   1.286       .  A
O673       Eu675   2.431   1_545  S
O674        C678   1.283   1_556  A
O674       Eu675   2.407       .  S
Eu675       O685   2.361   1_566  S
Eu675       O677   2.341       .  S
Eu675       O676   2.362   1_565  S
Eu675       O683   2.341   1_455  S
O676       Eu705   2.364   1_556  S
O676       Eu702   2.363   1_455  S
O677       Eu703   2.338   1_556  S
O677       Eu704   2.351   1_455  S
C678       C1691   1.471       .  S
C679       C1058   1.467       .  S
C680        C820   1.492       .  S
C681       C1604   1.466       .  S
H682        O683   0.966       .  S
O683       Eu704   2.348       .  S
O683       Eu702   2.351   1_565  S
H684        O685   0.965       .  S
O685       Eu703   2.346   1_545  S
O685       Eu705   2.347       .  S
O686        C709   1.298       .  A
O686       Eu702   2.511       .  S
O687        C710   1.293       .  A
O687       Eu703   2.482   1_655  S
O688        C711   1.299       .  A
O688       Eu704   2.514       .  S
O689        C712   1.300       .  A
O689       Eu705   2.512   1_556  S
O690        C713   1.304       .  A
O690       Eu705   2.540       .  S
O691        C714   1.296       .  A
O691       Eu704   2.489   1_554  S
O692        C715   1.291       .  A
O692       Eu706   2.464   1_565  S
O693        C716   1.300       .  A
O693       Eu706   2.516       .  S
O694        C715   1.288   1_556  A
O694       Eu704   2.434       .  S
O695        C716   1.283   1_455  A
O695       Eu705   2.400       .  S
O696        C711   1.282   1_545  A
O696       Eu702   2.400       .  S
O697        C714   1.283       .  A
O697       Eu703   2.405   1_655  S
O698        C713   1.281   1_565  A
O698       Eu703   2.390       .  S
O699        C712   1.284   1_655  A
O699       Eu702   2.406       .  S
O700        C709   1.280   1_554  A
O700       Eu706   2.386       .  S
O701        C710   1.285   1_545  A
O701       Eu706   2.426       .  S
Eu702       O720   2.340       .  S
Eu702       O708   2.334       .  S
Eu703       O707   2.344   1_465  S
Eu703       O718   2.361   1_455  S
Eu704       O718   2.368   1_556  S
Eu704       O708   2.338   1_565  S
Eu705       O707   2.343   1_455  S
Eu705       O720   2.356   1_454  S
Eu706       O707   2.332       .  S
Eu706       O718   2.360   1_545  S
Eu706       O720   2.336   1_554  S
Eu706       O708   2.356   1_554  S
C709       C1579   1.471       .  S
C710       C1159   1.467       .  S
C711       C1145   1.484       .  S
C712        C806   1.480   1_455  S
C713       C1072   1.495       .  S
C714        C753   1.467       .  S
C715       C1663   1.459       .  S
C716        C764   1.481       .  S
H717        O718   0.968       .  S
H719        O720   0.965       .  S
C721        C722   1.415       .  A
C721        C726   1.411       .  A
C721        H728   1.083       .  S
C722        C723   1.406       .  A
C723        C724   1.401       .  A
C723        N730   1.437       .  S
C724        C725   1.411       .  A
C724        H729   1.084       .  S
C725        C726   1.404       .  A
C726        N727   1.436       .  S
N727        H731   1.045       .  S
N727        H732   1.046       .  S
N730        H733   1.045       .  S
N730        H734   1.046       .  S
C735        C736   1.405       .  A
C735        C740   1.394       .  A
C735        H742   1.084       .  S
C736        C737   1.407       .  A
C737        C738   1.405       .  A
C737        N744   1.437       .  S
C738        C739   1.403       .  A
C738        H743   1.084       .  S
C739        C740   1.406       .  A
C740        N741   1.433       .  S
N741        H745   1.045       .  S
N741        H746   1.045       .  S
N744        H747   1.045       .  S
N744        H748   1.046       .  S
C749        C750   1.394   1_455  A
C749        C754   1.396       .  A
C749        H756   1.083       .  S
C750        C751   1.412       .  A
C751        C752   1.409       .  A
C751        N758   1.437       .  S
C752        C753   1.400       .  A
C752        H757   1.084       .  S
C753        C754   1.412   1_655  A
C754        N755   1.434       .  S
N755        H759   1.045       .  S
N755        H760   1.046       .  S
N758        H761   1.046       .  S
N758        H762   1.046       .  S
C763        C764   1.397       .  A
C763        C768   1.411       .  A
C763        H770   1.084       .  S
C764        C765   1.415       .  A
C765        C766   1.398       .  A
C765        N772   1.432       .  S
C766        C767   1.396       .  A
C766        H771   1.083       .  S
C767        C768   1.425       .  A
C768        N769   1.437       .  S
N769        H773   1.046       .  S
N769        H774   1.045       .  S
N772        H775   1.046   1_655  S
N772        H776   1.045       .  S
C777        C778   1.406       .  A
C777        C782   1.405       .  A
C777        H784   1.084       .  S
C778        C779   1.409       .  A
C779        C780   1.408       .  A
C779        N786   1.437       .  S
C780        C781   1.403       .  A
C780        H785   1.084       .  S
C781        C782   1.406       .  A
C782        N783   1.438       .  S
N783        H787   1.046       .  S
N783        H788   1.046       .  S
N786        H789   1.046       .  S
N786        H790   1.046       .  S
C791        C792   1.406       .  A
C791        C796   1.388       .  A
C791        H798   1.084       .  S
C792        C793   1.414       .  A
C793        C794   1.416       .  A
C793        N800   1.437       .  S
C794        C795   1.407       .  A
C794        H799   1.084       .  S
C795        C796   1.407       .  A
C796        N797   1.434       .  S
N797        H801   1.044       .  S
N797        H802   1.046       .  S
N800        H803   1.046       .  S
N800        H804   1.045       .  S
C805        C806   1.402   1_455  A
C805        C810   1.412       .  A
C805        H812   1.083       .  S
C806        C807   1.416       .  A
C807        C808   1.396       .  A
C807        N814   1.434       .  S
C808        C809   1.395       .  A
C808        H813   1.085       .  S
C809        C810   1.411   1_655  A
C810        N811   1.436       .  S
N811        H815   1.045       .  S
N811        H816   1.045       .  S
N814        H817   1.046       .  S
N814        H818   1.045       .  S
C819        C820   1.404       .  A
C819        C824   1.414       .  A
C819        H826   1.083       .  S
C820        C821   1.427   1_455  A
C821        C822   1.388       .  A
C821        N828   1.429       .  S
C822        C823   1.388   1_655  A
C822        H827   1.084       .  S
C823        C824   1.420       .  A
C824        N825   1.437       .  S
N825        H829   1.046       .  S
N825        H830   1.046       .  S
N828        H831   1.044       .  S
N828        H832   1.041       .  S
C833        C834   1.404       .  A
C833        C838   1.392       .  A
C833        H840   1.084       .  S
C834        C835   1.419       .  A
C835        C836   1.404       .  A
C835        N842   1.433       .  S
C836        C837   1.400       .  A
C836        H841   1.084       .  S
C837        C838   1.411       .  A
C838        N839   1.429       .  S
N839        H843   1.042   1_455  S
N839        H844   1.045       .  S
N842        H845   1.046       .  S
N842        H846   1.046       .  S
C847        C848   1.408       .  A
C847        C852   1.401       .  A
C847        H854   1.083       .  S
C848        C849   1.423       .  A
C849        C850   1.416       .  A
C849        N856   1.438       .  S
C850        C851   1.405       .  A
C850        H855   1.083       .  S
C851        C852   1.409       .  A
C852        N853   1.433       .  S
N853        H857   1.046       .  S
N853        H858   1.046       .  S
N856        H859   1.046       .  S
N856        H860   1.046       .  S
C861        C862   1.408       .  A
C861        C866   1.410       .  A
C861        H868   1.083       .  S
C862        C863   1.411       .  A
C863        C864   1.406       .  A
C863        N870   1.431       .  S
C864        C865   1.401       .  A
C864        H869   1.084       .  S
C865        C866   1.411       .  A
C866        N867   1.438       .  S
N867        H871   1.046       .  S
N867        H872   1.046       .  S
N870        H873   1.045       .  S
N870        H874   1.046       .  S
C875        C876   1.401       .  A
C875        C880   1.401       .  A
C875        H882   1.085       .  S
C876        C877   1.413       .  A
C877        C878   1.397       .  A
C877        N884   1.440       .  S
C878        C879   1.404       .  A
C878        H883   1.084       .  S
C879        C880   1.410       .  A
C880        N881   1.432       .  S
N881        H885   1.045       .  S
N881        H886   1.046       .  S
N884        H887   1.043       .  S
N884        H888   1.046       .  S
C889        C890   1.412       .  A
C889        C894   1.403       .  A
C889        H896   1.084       .  S
C890        C891   1.421       .  A
C891        C892   1.397       .  A
C891        N898   1.433       .  S
C892        C893   1.396       .  A
C892        H897   1.080       .  S
C893        C894   1.402       .  A
C894        N895   1.433       .  S
N895        H899   1.046       .  S
N895        H900   1.045       .  S
N898        H901   1.045       .  S
N898        H902   1.045       .  S
C903        C904   1.401       .  A
C903        C908   1.405       .  A
C903        H910   1.083       .  S
C904        C905   1.409       .  A
C905        C906   1.403       .  A
C905        N912   1.433       .  S
C906        C907   1.411       .  A
C906        H911   1.084       .  S
C907        C908   1.414       .  A
C908        N909   1.432       .  S
N909        H913   1.046       .  S
N909        H914   1.046       .  S
N912        H915   1.046       .  S
N912        H916   1.045       .  S
C917        C918   1.403       .  A
C917        C922   1.409       .  A
C917        H924   1.083       .  S
C918        C919   1.412       .  A
C919        C920   1.402       .  A
C919        N926   1.432       .  S
C920        C921   1.406       .  A
C920        H925   1.083       .  S
C921        C922   1.423       .  A
C922        N923   1.438       .  S
N923        H927   1.046       .  S
N923        H928   1.046       .  S
N926        H929   1.045       .  S
N926        H930   1.046       .  S
C931        C932   1.407       .  A
C931        C936   1.400       .  A
C931        H938   1.084       .  S
C932        C933   1.417       .  A
C933        C934   1.406       .  A
C933        N940   1.437       .  S
C934        C935   1.403       .  A
C934        H939   1.084       .  S
C935        C936   1.410       .  A
C936        N937   1.431       .  S
N937        H941   1.045       .  S
N937        H942   1.046       .  S
N940        H943   1.045       .  S
N940        H944   1.046       .  S
C945        C946   1.400       .  A
C945        C950   1.408       .  A
C945        H952   1.082       .  S
C946        C947   1.415       .  A
C947        C948   1.406       .  A
C947        N954   1.439       .  S
C948        C949   1.400       .  A
C948        H953   1.084       .  S
C949        C950   1.414       .  A
C950        N951   1.438       .  S
N951        H955   1.046       .  S
N951        H956   1.044       .  S
N954        H957   1.045       .  S
N954        H958   1.046       .  S
C959        C960   1.402       .  A
C959        C964   1.399       .  A
C959        H966   1.084       .  S
C960        C961   1.419       .  A
C961        C962   1.399       .  A
C961        N968   1.439       .  S
C962        C963   1.398       .  A
C962        H967   1.084       .  S
C963        C964   1.413       .  A
C964        N965   1.433       .  S
N965        H969   1.044       .  S
N965        H970   1.045       .  S
N968        H971   1.042       .  S
N968        H972   1.046       .  S
C973        C974   1.401       .  A
C973        C978   1.407       .  A
C973        H980   1.081       .  S
C974        C975   1.411       .  A
C975        C976   1.407       .  A
C975        N982   1.438       .  S
C976        C977   1.408       .  A
C976        H981   1.083       .  S
C977        C978   1.419       .  A
C978        N979   1.438       .  S
N979        H983   1.045       .  S
N979        H984   1.046       .  S
N982        H985   1.046       .  S
N982        H986   1.046       .  S
C987        C988   1.410       .  A
C987        C992   1.408       .  A
C987        H994   1.083       .  S
C988        C989   1.419       .  A
C989        C990   1.406       .  A
C989        N996   1.438       .  S
C990        C991   1.400       .  A
C990        H995   1.077       .  S
C991        C992   1.411       .  A
C992        N993   1.438       .  S
N993        H997   1.045       .  S
N993        H998   1.046       .  S
N996        H999   1.046       .  S
N996       H1000   1.046       .  S
C1001      C1002   1.403       .  A
C1001      C1006   1.402       .  A
C1001      H1008   1.084       .  S
C1002      C1003   1.405       .  A
C1003      C1004   1.404       .  A
C1003      N1010   1.432       .  S
C1004      C1005   1.405       .  A
C1004      H1009   1.084       .  S
C1005      C1006   1.418       .  A
C1006      N1007   1.440       .  S
N1007      H1011   1.046       .  S
N1007      H1012   1.042       .  S
N1010      H1013   1.046       .  S
N1010      H1014   1.045       .  S
C1015      C1016   1.402       .  A
C1015      C1020   1.404       .  A
C1015      H1022   1.084       .  S
C1016      C1017   1.409       .  A
C1017      C1018   1.407       .  A
C1017      N1024   1.439       .  S
C1018      C1019   1.406       .  A
C1018      H1023   1.083       .  S
C1019      C1020   1.407       .  A
C1020      N1021   1.432       .  S
N1021      H1025   1.045       .  S
N1021      H1026   1.046       .  S
N1024      H1027   1.043       .  S
N1024      H1028   1.046       .  S
C1029      C1030   1.400       .  A
C1029      C1034   1.405       .  A
C1029      H1036   1.084       .  S
C1030      C1031   1.406       .  A
C1031      C1032   1.405       .  A
C1031      N1038   1.432       .  S
C1032      C1033   1.410       .  A
C1032      H1037   1.083       .  S
C1033      C1034   1.421       .  A
C1034      N1035   1.438       .  S
N1035      H1039   1.046       .  S
N1035      H1040   1.046       .  S
N1038      H1041   1.046       .  S
N1038      H1042   1.045       .  S
C1043      C1044   1.408       .  A
C1043      C1048   1.400       .  A
C1043      H1050   1.083       .  S
C1044      C1045   1.418       .  A
C1045      C1046   1.402       .  A
C1045      N1052   1.439       .  S
C1046      C1047   1.402       .  A
C1046      H1051   1.084       .  S
C1047      C1048   1.406       .  A
C1048      N1049   1.432       .  S
N1049      H1053   1.046       .  S
N1049      H1054   1.046       .  S
N1052      H1055   1.046       .  S
N1052      H1056   1.046       .  S
C1057      C1058   1.399       .  A
C1057      C1062   1.401       .  A
C1057      H1064   1.084       .  S
C1058      C1059   1.412   1_545  A
C1059      C1060   1.407       .  A
C1059      N1066   1.437       .  S
C1060      C1061   1.401   1_565  A
C1060      H1065   1.084       .  S
C1061      C1062   1.412       .  A
C1062      N1063   1.433       .  S
N1063      H1067   1.046       .  S
N1063      H1068   1.045       .  S
N1066      H1069   1.046       .  S
N1066      H1070   1.046       .  S
C1071      C1072   1.412       .  A
C1071      C1076   1.399       .  A
C1071      H1078   1.084       .  S
C1072      C1073   1.415       .  A
C1073      C1074   1.411       .  A
C1073      N1080   1.438       .  S
C1074      C1075   1.416       .  A
C1074      H1079   1.083       .  S
C1075      C1076   1.415       .  A
C1076      N1077   1.431   1_545  S
N1077      H1081   1.043   1_565  S
N1077      H1082   1.043       .  S
N1080      H1083   1.040       .  S
N1080      H1084   1.046       .  S
C1085      C1086   1.409       .  A
C1085      C1090   1.402       .  A
C1085      H1092   1.077       .  S
C1086      C1087   1.417       .  A
C1087      C1088   1.396       .  A
C1087      N1094   1.434       .  S
C1088      C1089   1.403       .  A
C1088      H1093   1.084       .  S
C1089      C1090   1.411       .  A
C1090      N1091   1.433       .  S
N1091      H1095   1.046       .  S
N1091      H1096   1.046       .  S
N1094      H1097   1.046       .  S
N1094      H1098   1.046       .  S
C1099      C1100   1.404       .  A
C1099      C1104   1.396       .  A
C1099      H1106   1.085       .  S
C1100      C1101   1.421       .  A
C1101      C1102   1.408       .  A
C1101      N1108   1.435       .  S
C1102      C1103   1.401       .  A
C1102      H1107   1.084       .  S
C1103      C1104   1.412       .  A
C1104      N1105   1.439       .  S
N1105      H1109   1.046       .  S
N1105      H1110   1.043       .  S
N1108      H1111   1.040       .  S
N1108      H1112   1.046       .  S
C1113      C1114   1.409       .  A
C1113      C1118   1.410       .  A
C1113      H1120   1.075       .  S
C1114      C1115   1.421       .  A
C1115      C1116   1.410       .  A
C1115      N1122   1.433       .  S
C1116      C1117   1.404       .  A
C1116      H1121   1.084       .  S
C1117      C1118   1.420       .  A
C1118      N1119   1.439       .  S
N1119      H1123   1.045       .  S
N1119      H1124   1.046       .  S
N1122      H1125   1.045       .  S
N1122      H1126   1.046       .  S
C1127      C1128   1.398       .  A
C1127      C1132   1.402       .  A
C1127      H1134   1.084       .  S
C1128      C1129   1.409       .  A
C1129      C1130   1.405       .  A
C1129      N1136   1.432       .  S
C1130      C1131   1.401       .  A
C1130      H1135   1.084       .  S
C1131      C1132   1.420       .  A
C1132      N1133   1.439       .  S
N1133      H1137   1.046       .  S
N1133      H1138   1.044       .  S
N1136      H1139   1.045       .  S
N1136      H1140   1.046       .  S
C1141      C1142   1.415       .  A
C1141      C1146   1.407       .  A
C1141      H1148   1.084       .  S
C1142      C1143   1.407       .  A
C1143      C1144   1.392       .  A
C1143      N1150   1.432   1_565  S
C1144      C1145   1.412       .  A
C1144      H1149   1.084   1_565  S
C1145      C1146   1.413       .  A
C1146      N1147   1.438       .  S
N1147      H1151   1.046       .  S
N1147      H1152   1.041       .  S
N1150      H1153   1.045       .  S
N1150      H1154   1.043       .  S
C1155      C1156   1.405       .  A
C1155      C1160   1.404       .  A
C1155      H1162   1.084       .  S
C1156      C1157   1.406   1_565  A
C1157      C1158   1.405       .  A
C1157      N1164   1.432       .  S
C1158      C1159   1.404   1_545  A
C1158      H1163   1.084       .  S
C1159      C1160   1.407       .  A
C1160      N1161   1.438       .  S
N1161      H1165   1.046       .  S
N1161      H1166   1.045       .  S
N1164      H1167   1.046       .  S
N1164      H1168   1.046       .  S
C1169      C1170   1.414       .  A
C1169      C1174   1.402       .  A
C1169      H1176   1.072       .  S
C1170      C1171   1.433       .  A
C1171      C1172   1.404       .  A
C1171      N1178   1.440       .  S
C1172      C1173   1.400       .  A
C1172      H1177   1.084       .  S
C1173      C1174   1.407       .  A
C1174      N1175   1.439       .  S
N1175      H1179   1.046       .  S
N1175      H1180   1.045       .  S
N1178      H1181   1.038       .  S
N1178      H1182   1.045       .  S
C1183      C1184   1.403       .  A
C1183      C1188   1.411       .  A
C1183      H1190   1.083       .  S
C1184      C1185   1.415       .  A
C1185      C1186   1.402       .  A
C1185      N1192   1.433       .  S
C1186      C1187   1.398       .  A
C1186      H1191   1.084       .  S
C1187      C1188   1.411       .  A
C1188      N1189   1.437       .  S
N1189      H1193   1.046       .  S
N1189      H1194   1.046       .  S
N1192      H1195   1.045       .  S
N1192      H1196   1.046       .  S
C1197      C1198   1.404       .  A
C1197      C1202   1.395       .  A
C1197      H1204   1.078       .  S
C1198      C1199   1.419       .  A
C1199      C1200   1.400       .  A
C1199      N1206   1.433       .  S
C1200      C1201   1.400       .  A
C1200      H1205   1.084       .  S
C1201      C1202   1.425       .  A
C1202      N1203   1.434       .  S
N1203      H1207   1.045       .  S
N1203      H1208   1.043       .  S
N1206      H1209   1.045       .  S
N1206      H1210   1.046       .  S
C1211      C1212   1.415       .  A
C1211      C1216   1.410       .  A
C1211      H1218   1.083       .  S
C1212      C1213   1.403       .  A
C1213      C1214   1.401       .  A
C1213      N1220   1.432       .  S
C1214      C1215   1.413       .  A
C1214      H1219   1.084       .  S
C1215      C1216   1.406       .  A
C1216      N1217   1.437       .  S
N1217      H1221   1.046       .  S
N1217      H1222   1.045       .  S
N1220      H1223   1.045       .  S
N1220      H1224   1.046       .  S
C1225      C1226   1.408       .  A
C1225      C1230   1.397       .  A
C1225      H1232   1.075       .  S
C1226      C1227   1.421   1_655  A
C1227      C1228   1.402       .  A
C1227      N1234   1.434       .  S
C1228      C1229   1.398   1_455  A
C1228      H1233   1.084       .  S
C1229      C1230   1.408       .  A
C1230      N1231   1.434       .  S
N1231      H1235   1.046       .  S
N1231      H1236   1.046       .  S
N1234      H1237   1.046       .  S
N1234      H1238   1.046       .  S
C1239      C1240   1.401   1_455  A
C1239      C1244   1.404       .  A
C1239      H1246   1.084       .  S
C1240      C1241   1.414       .  A
C1241      C1242   1.402       .  A
C1241      N1248   1.432       .  S
C1242      C1243   1.407       .  A
C1242      H1247   1.076       .  S
C1243      C1244   1.419   1_655  A
C1244      N1245   1.433       .  S
N1245      H1249   1.045       .  S
N1245      H1250   1.046       .  S
N1248      H1251   1.046       .  S
N1248      H1252   1.046       .  S
C1253      C1254   1.403       .  A
C1253      C1258   1.407       .  A
C1253      H1260   1.084       .  S
C1254      C1255   1.418       .  A
C1255      C1256   1.402       .  A
C1255      N1262   1.429       .  S
C1256      C1257   1.405       .  A
C1256      H1261   1.084       .  S
C1257      C1258   1.426       .  A
C1258      N1259   1.433       .  S
N1259      H1263   1.044       .  S
N1259      H1264   1.046       .  S
N1262      H1265   1.043       .  S
N1262      H1266   1.042       .  S
C1267      C1268   1.408       .  A
C1267      C1272   1.403       .  A
C1267      H1274   1.083       .  S
C1268      C1269   1.417       .  A
C1269      C1270   1.405       .  A
C1269      N1276   1.432       .  S
C1270      C1271   1.403       .  A
C1270      H1275   1.084       .  S
C1271      C1272   1.411       .  A
C1272      N1273   1.431       .  S
N1273      H1277   1.046       .  S
N1273      H1278   1.044       .  S
N1276      H1279   1.046       .  S
N1276      H1280   1.045       .  S
C1281      C1282   1.401       .  A
C1281      C1286   1.408       .  A
C1281      H1288   1.084       .  S
C1282      C1283   1.410       .  A
C1283      C1284   1.396       .  A
C1283      N1290   1.433       .  S
C1284      C1285   1.401       .  A
C1284      H1289   1.084       .  S
C1285      C1286   1.414       .  A
C1286      N1287   1.438       .  S
N1287      H1291   1.046       .  S
N1287      H1292   1.046       .  S
N1290      H1293   1.046       .  S
N1290      H1294   1.045       .  S
C1295      C1296   1.406       .  A
C1295      C1300   1.403       .  A
C1295      H1302   1.083       .  S
C1296      C1297   1.411       .  A
C1297      C1298   1.407       .  A
C1297      N1304   1.438       .  S
C1298      C1299   1.403       .  A
C1298      H1303   1.084       .  S
C1299      C1300   1.410       .  A
C1300      N1301   1.431       .  S
N1301      H1305   1.045       .  S
N1301      H1306   1.044       .  S
N1304      H1307   1.046       .  S
N1304      H1308   1.046       .  S
C1309      C1310   1.399       .  A
C1309      C1314   1.398       .  A
C1309      H1316   1.084       .  S
C1310      C1311   1.414       .  A
C1311      C1312   1.399       .  A
C1311      N1318   1.432       .  S
C1312      C1313   1.401       .  A
C1312      H1317   1.084       .  S
C1313      C1314   1.406       .  A
C1314      N1315   1.431       .  S
N1315      H1319   1.046       .  S
N1315      H1320   1.045       .  S
N1318      H1321   1.043       .  S
N1318      H1322   1.045       .  S
C1323      C1324   1.402       .  A
C1323      C1328   1.410       .  A
C1323      H1330   1.081       .  S
C1324      C1325   1.404       .  A
C1325      C1326   1.401       .  A
C1325      N1332   1.432       .  S
C1326      C1327   1.410       .  A
C1326      H1331   1.083       .  S
C1327      C1328   1.419       .  A
C1328      N1329   1.438       .  S
N1329      H1333   1.046       .  S
N1329      H1334   1.046       .  S
N1332      H1335   1.046       .  S
N1332      H1336   1.046       .  S
C1337      C1338   1.400       .  A
C1337      C1342   1.405       .  A
C1337      H1344   1.084       .  S
C1338      C1339   1.412       .  A
C1339      C1340   1.406       .  A
C1339      N1346   1.431       .  S
C1340      C1341   1.407       .  A
C1340      H1345   1.083       .  S
C1341      C1342   1.420       .  A
C1342      N1343   1.433       .  S
N1343      H1347   1.045       .  S
N1343      H1348   1.046       .  S
N1346      H1349   1.046       .  S
N1346      H1350   1.045       .  S
C1351      C1352   1.404       .  A
C1351      C1356   1.409       .  A
C1351      H1358   1.083       .  S
C1352      C1353   1.414       .  A
C1353      C1354   1.403       .  A
C1353      N1360   1.434       .  S
C1354      C1355   1.406       .  A
C1354      H1359   1.082       .  S
C1355      C1356   1.419       .  A
C1356      N1357   1.437       .  S
N1357      H1361   1.046       .  S
N1357      H1362   1.045       .  S
N1360      H1363   1.046       .  S
N1360      H1364   1.046       .  S
C1365      C1366   1.407   1_455  A
C1365      C1370   1.406       .  A
C1365      H1372   1.084       .  S
C1366      C1367   1.415       .  A
C1367      C1368   1.401       .  A
C1367      N1374   1.439       .  S
C1368      C1369   1.410       .  A
C1368      H1373   1.077       .  S
C1369      C1370   1.415   1_655  A
C1370      N1371   1.432       .  S
N1371      H1375   1.046       .  S
N1371      H1376   1.046       .  S
N1374      H1377   1.045       .  S
N1374      H1378   1.045       .  S
C1379      C1380   1.396       .  A
C1379      C1384   1.394       .  A
C1379      H1386   1.084       .  S
C1380      C1381   1.415   1_655  A
C1381      C1382   1.391       .  A
C1381      N1388   1.433       .  S
C1382      C1383   1.407   1_455  A
C1382      H1387   1.075       .  S
C1383      C1384   1.431       .  A
C1384      N1385   1.435       .  S
N1385      H1389   1.042       .  S
N1385      H1390   1.042       .  S
N1388      H1391   1.045       .  S
N1388      H1392   1.044       .  S
C1393      C1394   1.411       .  A
C1393      C1398   1.400       .  A
C1393      H1400   1.083       .  S
C1394      C1395   1.423       .  A
C1395      C1396   1.405       .  A
C1395      N1402   1.438       .  S
C1396      C1397   1.397       .  A
C1396      H1401   1.082       .  S
C1397      C1398   1.410       .  A
C1398      N1399   1.433       .  S
N1399      H1403   1.044       .  S
N1399      H1404   1.046       .  S
N1402      H1405   1.045       .  S
N1402      H1406   1.046       .  S
C1407      C1408   1.412       .  A
C1407      C1412   1.408       .  A
C1407      H1414   1.083       .  S
C1408      C1409   1.418       .  A
C1409      C1410   1.407       .  A
C1409      N1416   1.432       .  S
C1410      C1411   1.403       .  A
C1410      H1415   1.084       .  S
C1411      C1412   1.408       .  A
C1412      N1413   1.432       .  S
N1413      H1417   1.046       .  S
N1413      H1418   1.046       .  S
N1416      H1419   1.046       .  S
N1416      H1420   1.046       .  S
C1421      C1422   1.398       .  A
C1421      C1426   1.408       .  A
C1421      H1428   1.084       .  S
C1422      C1423   1.411       .  A
C1423      C1424   1.402       .  A
C1423      N1430   1.433       .  S
C1424      C1425   1.401       .  A
C1424      H1429   1.084       .  S
C1425      C1426   1.417       .  A
C1426      N1427   1.438       .  S
N1427      H1431   1.046       .  S
N1427      H1432   1.043       .  S
N1430      H1433   1.046       .  S
N1430      H1434   1.044       .  S
C1435      C1436   1.399       .  A
C1435      C1440   1.408       .  A
C1435      H1442   1.083       .  S
C1436      C1437   1.405       .  A
C1437      C1438   1.401       .  A
C1437      N1444   1.437       .  S
C1438      C1439   1.405       .  A
C1438      H1443   1.083       .  S
C1439      C1440   1.419       .  A
C1440      N1441   1.438       .  S
N1441      H1445   1.044       .  S
N1441      H1446   1.046       .  S
N1444      H1447   1.046       .  S
N1444      H1448   1.046       .  S
C1449      C1450   1.409       .  A
C1449      C1454   1.409       .  A
C1449      H1456   1.084       .  S
C1450      C1451   1.418       .  A
C1451      C1452   1.403       .  A
C1451      N1458   1.433       .  S
C1452      C1453   1.403       .  A
C1452      H1457   1.084       .  S
C1453      C1454   1.408       .  A
C1454      N1455   1.437       .  S
N1455      H1459   1.046       .  S
N1455      H1460   1.045       .  S
N1458      H1461   1.046       .  S
N1458      H1462   1.044       .  S
C1463      C1464   1.399       .  A
C1463      C1468   1.401       .  A
C1463      H1470   1.084       .  S
C1464      C1465   1.408       .  A
C1465      C1466   1.401       .  A
C1465      N1472   1.439       .  S
C1466      C1467   1.402       .  A
C1466      H1471   1.084       .  S
C1467      C1468   1.408       .  A
C1468      N1469   1.432       .  S
N1469      H1473   1.046       .  S
N1469      H1474   1.046       .  S
N1472      H1475   1.046       .  S
N1472      H1476   1.046       .  S
C1477      C1478   1.402       .  A
C1477      C1482   1.401       .  A
C1477      H1484   1.084       .  S
C1478      C1479   1.416       .  A
C1479      C1480   1.395       .  A
C1479      N1486   1.433       .  S
C1480      C1481   1.399       .  A
C1480      H1485   1.085       .  S
C1481      C1482   1.417       .  A
C1482      N1483   1.439       .  S
N1483      H1487   1.045       .  S
N1483      H1488   1.042       .  S
N1486      H1489   1.045       .  S
N1486      H1490   1.045       .  S
C1491      C1492   1.413       .  A
C1491      C1496   1.402       .  A
C1491      H1498   1.083       .  S
C1492      C1493   1.414       .  A
C1493      C1494   1.405       .  A
C1493      N1500   1.432       .  S
C1494      C1495   1.404       .  A
C1494      H1499   1.084       .  S
C1495      C1496   1.411       .  A
C1496      N1497   1.433       .  S
N1497      H1501   1.045       .  S
N1497      H1502   1.044       .  S
N1500      H1503   1.046       .  S
N1500      H1504   1.046       .  S
C1505      C1506   1.394       .  A
C1505      C1510   1.393       .  A
C1505      H1512   1.084       .  S
C1506      C1507   1.408       .  A
C1507      C1508   1.402       .  A
C1507      N1514   1.433       .  S
C1508      C1509   1.410       .  A
C1508      H1513   1.077       .  S
C1509      C1510   1.432       .  A
C1510      N1511   1.436       .  S
N1511      H1515   1.042       .  S
N1511      H1516   1.043       .  S
N1514      H1517   1.046       .  S
N1514      H1518   1.045       .  S
C1519      C1520   1.411       .  A
C1519      C1524   1.392       .  A
C1519      H1526   1.082       .  S
C1520      C1521   1.415       .  A
C1521      C1522   1.414       .  A
C1521      N1528   1.431       .  S
C1522      C1523   1.407       .  A
C1522      H1527   1.082       .  S
C1523      C1524   1.405       .  A
C1524      N1525   1.438       .  S
N1525      H1529   1.045       .  S
N1525      H1530   1.044       .  S
N1528      H1531   1.046       .  S
N1528      H1532   1.045       .  S
C1533      C1534   1.416       .  A
C1533      C1538   1.407       .  A
C1533      H1540   1.080       .  S
C1534      C1535   1.420       .  A
C1535      C1536   1.411       .  A
C1535      N1542   1.438       .  S
C1536      C1537   1.402       .  A
C1536      H1541   1.080       .  S
C1537      C1538   1.413       .  A
C1538      N1539   1.439       .  S
N1539      H1543   1.046       .  S
N1539      H1544   1.043       .  S
N1542      H1545   1.045       .  S
N1542      H1546   1.046       .  S
C1547      C1548   1.406       .  A
C1547      C1552   1.408       .  A
C1547      H1554   1.084       .  S
C1548      C1549   1.406       .  A
C1549      C1550   1.406       .  A
C1549      N1556   1.437       .  S
C1550      C1551   1.406       .  A
C1550      H1555   1.084       .  S
C1551      C1552   1.407       .  A
C1552      N1553   1.437       .  S
N1553      H1557   1.046       .  S
N1553      H1558   1.046       .  S
N1556      H1559   1.046       .  S
N1556      H1560   1.045       .  S
C1561      C1562   1.403   1_556  A
C1561      C1566   1.394       .  A
C1561      H1568   1.084       .  S
C1562      C1563   1.410       .  A
C1563      C1564   1.397       .  A
C1563      N1570   1.433       .  S
C1564      C1565   1.408   1_554  A
C1564      H1569   1.077       .  S
C1565      C1566   1.416       .  A
C1566      N1567   1.434       .  S
N1567      H1571   1.046       .  S
N1567      H1572   1.046       .  S
N1570      H1573   1.046       .  S
N1570      H1574   1.046       .  S
C1575      C1576   1.403   1_554  A
C1575      C1580   1.395       .  A
C1575      H1582   1.084       .  S
C1576      C1577   1.409       .  A
C1577      C1578   1.412       .  A
C1577      N1584   1.431       .  S
C1578      C1579   1.406       .  A
C1578      H1583   1.084       .  S
C1579      C1580   1.411   1_556  A
C1580      N1581   1.440       .  S
N1581      H1585   1.046       .  S
N1581      H1586   1.045       .  S
N1584      H1587   1.045       .  S
N1584      H1588   1.045       .  S
C1589      C1590   1.405   1_556  A
C1589      C1594   1.405       .  A
C1589      H1596   1.083       .  S
C1590      C1591   1.417       .  A
C1591      C1592   1.406       .  A
C1591      N1598   1.431       .  S
C1592      C1593   1.407       .  A
C1592      H1597   1.078       .  S
C1593      C1594   1.419   1_554  A
C1594      N1595   1.433       .  S
N1595      H1599   1.045       .  S
N1595      H1600   1.046       .  S
N1598      H1601   1.046       .  S
N1598      H1602   1.045       .  S
C1603      C1604   1.397       .  A
C1603      C1608   1.400       .  A
C1603      H1610   1.084       .  S
C1604      C1605   1.410       .  A
C1605      C1606   1.409   1_556  A
C1605      N1612   1.436   1_556  S
C1606      C1607   1.403   1_554  A
C1606      H1611   1.084       .  S
C1607      C1608   1.411       .  A
C1608      N1609   1.433       .  S
N1609      H1613   1.046       .  S
N1609      H1614   1.045       .  S
N1612      H1615   1.046       .  S
N1612      H1616   1.046   1_545  S
C1617      C1618   1.421       .  A
C1617      C1622   1.404       .  A
C1617      H1624   1.073       .  S
C1618      C1619   1.430       .  A
C1619      C1620   1.406       .  A
C1619      N1626   1.434       .  S
C1620      C1621   1.401       .  A
C1620      H1625   1.085       .  S
C1621      C1622   1.409       .  A
C1622      N1623   1.439       .  S
N1623      H1627   1.045       .  S
N1623      H1628   1.043       .  S
N1626      H1629   1.041       .  S
N1626      H1630   1.043       .  S
C1631      C1632   1.404       .  A
C1631      C1636   1.398       .  A
C1631      H1638   1.084       .  S
C1632      C1633   1.409       .  A
C1633      C1634   1.408       .  A
C1633      N1640   1.438       .  S
C1634      C1635   1.405       .  A
C1634      H1639   1.084       .  S
C1635      C1636   1.411       .  A
C1636      N1637   1.439       .  S
N1637      H1641   1.046       .  S
N1637      H1642   1.044       .  S
N1640      H1643   1.045       .  S
N1640      H1644   1.045       .  S
C1645      C1646   1.409   1_554  A
C1645      C1650   1.396       .  A
C1645      H1652   1.078       .  S
C1646      C1647   1.416       .  A
C1647      C1648   1.409       .  A
C1647      N1654   1.432       .  S
C1648      C1649   1.408   1_556  A
C1648      H1653   1.084       .  S
C1649      C1650   1.420       .  A
C1650      N1651   1.433       .  S
N1651      H1655   1.045       .  S
N1651      H1656   1.045       .  S
N1654      H1657   1.046       .  S
N1654      H1658   1.046       .  S
C1659      C1660   1.403       .  A
C1659      C1664   1.400       .  A
C1659      H1666   1.084       .  S
C1660      C1661   1.406   1_554  A
C1661      C1662   1.403       .  A
C1661      N1668   1.432       .  S
C1662      C1663   1.403   1_556  A
C1662      H1667   1.084       .  S
C1663      C1664   1.404       .  A
C1664      N1665   1.437       .  S
N1665      H1669   1.046       .  S
N1665      H1670   1.045       .  S
N1668      H1671   1.046       .  S
N1668      H1672   1.045       .  S
C1673      C1674   1.411   1_554  A
C1673      C1678   1.402       .  A
C1673      H1680   1.074       .  S
C1674      C1675   1.437       .  A
C1675      C1676   1.397       .  A
C1675      N1682   1.442       .  S
C1676      C1677   1.393       .  A
C1676      H1681   1.085       .  S
C1677      C1678   1.408   1_556  A
C1678      N1679   1.439       .  S
N1679      H1683   1.046       .  S
N1679      H1684   1.046       .  S
N1682      H1685   1.037       .  S
N1682      H1686   1.046       .  S
C1687      C1688   1.407   1_556  A
C1687      C1692   1.392       .  A
C1687      H1694   1.084       .  S
C1688      C1689   1.412       .  A
C1689      C1690   1.416       .  A
C1689      N1696   1.436       .  S
C1690      C1691   1.407       .  A
C1690      H1695   1.083       .  S
C1691      C1692   1.404   1_554  A
C1692      N1693   1.434       .  S
N1693      H1697   1.046       .  S
N1693      H1698   1.046       .  S
N1696      H1699   1.046       .  S
N1696      H1700   1.046       .  S
C1701      C1702   1.396   1_565  A
C1701      C1706   1.403       .  A
C1701      H1708   1.084       .  S
C1702      C1703   1.402       .  A
C1703      C1704   1.398       .  A
C1703      N1710   1.434       .  S
C1704      C1705   1.413       .  A
C1704      H1709   1.074       .  S
C1705      C1706   1.436   1_545  A
C1706      N1707   1.441       .  S
N1707      H1711   1.046       .  S
N1707      H1712   1.038       .  S
N1710      H1713   1.046       .  S
N1710      H1714   1.046       .  S
C1715      C1716   1.401   1_565  A
C1715      C1720   1.402       .  A
C1715      H1722   1.084       .  S
C1716      C1717   1.411       .  A
C1717      C1718   1.404       .  A
C1717      N1724   1.432       .  S
C1718      C1719   1.411       .  A
C1718      H1723   1.075       .  S
C1719      C1720   1.433   1_545  A
C1720      N1721   1.436       .  S
N1721      H1725   1.041       .  S
N1721      H1726   1.042       .  S
N1724      H1727   1.046       .  S
N1724      H1728   1.046       .  S
C1729      C1730   1.401       .  A
C1729      C1734   1.404       .  A
C1729      H1736   1.084       .  S
C1730      C1731   1.416       .  A
C1731      C1732   1.413       .  A
C1731      N1738   1.437       .  S
C1732      C1733   1.401       .  A
C1732      H1737   1.084       .  S
C1733      C1734   1.413       .  A
C1734      N1735   1.433       .  S
N1735      H1739   1.045       .  S
N1735      H1740   1.045       .  S
N1738      H1741   1.045       .  S
N1738      H1742   1.046       .  S
C1743      C1744   1.405       .  A
C1743      C1748   1.402       .  A
C1743      H1750   1.084       .  S
C1744      C1745   1.422       .  A
C1745      C1746   1.400       .  A
C1745      N1752   1.441       .  S
C1746      C1747   1.398       .  A
C1746      H1751   1.085       .  S
C1747      C1748   1.409       .  A
C1748      N1749   1.432       .  S
N1749      H1753   1.045       .  S
N1749      H1754   1.045       .  S
N1752      H1755   1.042       .  S
N1752      H1756   1.045       .  S
C1757      C1758   1.402       .  A
C1757      C1762   1.405       .  A
C1757      H1764   1.082       .  S
C1758      C1759   1.410       .  A
C1759      C1760   1.412       .  A
C1759      N1766   1.437       .  S
C1760      C1761   1.411       .  A
C1760      H1765   1.084       .  S
C1761      C1762   1.411       .  A
C1762      N1763   1.432       .  S
N1763      H1767   1.045       .  S
N1763      H1768   1.046       .  S
N1766      H1769   1.045       .  S
N1766      H1770   1.046       .  S
C1771      C1772   1.402       .  A
C1771      C1776   1.398       .  A
C1771      H1778   1.084       .  S
C1772      C1773   1.417       .  A
C1773      C1774   1.394       .  A
C1773      N1780   1.434       .  S
C1774      C1775   1.409       .  A
C1774      H1779   1.075       .  S
C1775      C1776   1.415       .  A
C1776      N1777   1.433       .  S
N1777      H1781   1.046       .  S
N1777      H1782   1.046       .  S
N1780      H1783   1.046       .  S
N1780      H1784   1.045       .  S
C1785      C1786   1.410       .  A
C1785      C1790   1.398       .  A
C1785      H1792   1.078       .  S
C1786      C1787   1.420       .  A
C1787      C1788   1.411       .  A
C1787      N1794   1.438       .  S
C1788      C1789   1.408       .  A
C1788      H1793   1.083       .  S
C1789      C1790   1.411       .  A
C1790      N1791   1.433       .  S
N1791      H1795   1.046       .  S
N1791      H1796   1.046       .  S
N1794      H1797   1.046       .  S
N1794      H1798   1.045       .  S
C1799      C1800   1.398       .  A
C1799      C1804   1.405       .  A
C1799      H1806   1.084       .  S
C1800      C1801   1.415       .  A
C1801      C1802   1.405       .  A
C1801      N1808   1.433       .  S
C1802      C1803   1.402       .  A
C1802      H1807   1.084       .  S
C1803      C1804   1.416       .  A
C1804      N1805   1.438       .  S
N1805      H1809   1.045       .  S
N1805      H1810   1.045       .  S
N1808      H1811   1.046       .  S
N1808      H1812   1.045       .  S
C1813      C1814   1.406       .  A
C1813      C1818   1.402       .  A
C1813      H1820   1.083       .  S
C1814      C1815   1.414       .  A
C1815      C1816   1.395       .  A
C1815      N1822   1.433       .  S
C1816      C1817   1.399       .  A
C1816      H1821   1.081       .  S
C1817      C1818   1.412       .  A
C1818      N1819   1.438       .  S
N1819      H1823   1.046       .  S
N1819      H1824   1.046       .  S
N1822      H1825   1.046       .  S
N1822      H1826   1.046       .  S
C1827      C1828   1.403       .  A
C1827      C1832   1.399       .  A
C1827      H1834   1.082       .  S
C1828      C1829   1.418       .  A
C1829      C1830   1.405       .  A
C1829      N1836   1.438       .  S
C1830      C1831   1.403       .  A
C1830      H1835   1.084       .  S
C1831      C1832   1.421       .  A
C1832      N1833   1.433       .  S
N1833      H1837   1.044       .  S
N1833      H1838   1.045       .  S
N1836      H1839   1.045       .  S
N1836      H1840   1.046       .  S
C1841      C1842   1.411       .  A
C1841      C1846   1.407       .  A
C1841      H1848   1.083       .  S
C1842      C1843   1.418       .  A
C1843      C1844   1.408       .  A
C1843      N1850   1.438       .  S
C1844      C1845   1.402       .  A
C1844      H1849   1.083       .  S
C1845      C1846   1.406       .  A
C1846      N1847   1.438       .  S
N1847      H1851   1.046       .  S
N1847      H1852   1.046       .  S
N1850      H1853   1.046       .  S
N1850      H1854   1.046       .  S
C1855      C1856   1.407       .  A
C1855      C1860   1.404       .  A
C1855      H1862   1.078       .  S
C1856      C1857   1.420       .  A
C1857      C1858   1.399       .  A
C1857      N1864   1.434       .  S
C1858      C1859   1.398       .  A
C1858      H1863   1.084       .  S
C1859      C1860   1.413       .  A
C1860      N1861   1.433       .  S
N1861      H1865   1.045       .  S
N1861      H1866   1.046       .  S
N1864      H1867   1.045       .  S
N1864      H1868   1.046       .  S
C1869      C1870   1.408       .  A
C1869      C1874   1.399       .  A
C1869      H1876   1.083       .  S
C1870      C1871   1.417       .  A
C1871      C1872   1.401       .  A
C1871      N1878   1.432       .  S
C1872      C1873   1.400       .  A
C1872      H1877   1.084       .  S
C1873      C1874   1.406       .  A
C1874      N1875   1.431       .  S
N1875      H1879   1.046       .  S
N1875      H1880   1.046       .  S
N1878      H1881   1.045       .  S
N1878      H1882   1.046       .  S
C1883      C1884   1.408       .  A
C1883      C1888   1.417       .  A
C1883      H1890   1.084       .  S
C1884      C1885   1.410       .  A
C1885      C1886   1.395       .  A
C1885      N1892   1.434       .  S
C1886      C1887   1.402       .  A
C1886      H1891   1.085       .  S
C1887      C1888   1.411       .  A
C1888      N1889   1.431       .  S
N1889      H1893   1.046       .  S
N1889      H1894   1.045       .  S
N1892      H1895   1.046       .  S
N1892      H1896   1.046       .  S
C1897      C1898   1.404   1_565  A
C1897      C1902   1.408       .  A
C1897      H1904   1.084       .  S
C1898      C1899   1.411       .  A
C1899      C1900   1.402       .  A
C1899      N1906   1.433       .  S
C1900      C1901   1.411       .  A
C1900      H1905   1.075       .  S
C1901      C1902   1.419   1_545  A
C1902      N1903   1.433       .  S
N1903      H1907   1.046       .  S
N1903      H1908   1.045       .  S
N1906      H1909   1.046       .  S
N1906      H1910   1.046       .  S
C1911      C1912   1.402   1_565  A
C1911      C1916   1.397       .  A
C1911      H1918   1.084       .  S
C1912      C1913   1.417       .  A
C1913      C1914   1.405       .  A
C1913      N1920   1.439       .  S
C1914      C1915   1.407       .  A
C1914      H1919   1.076       .  S
C1915      C1916   1.418   1_545  A
C1916      N1917   1.434       .  S
N1917      H1921   1.046       .  S
N1917      H1922   1.046       .  S
N1920      H1923   1.046       .  S
N1920      H1924   1.045       .  S
C1925      C1926   1.403       .  A
C1925      C1930   1.402       .  A
C1925      H1932   1.081       .  S
C1926      C1927   1.414       .  A
C1927      C1928   1.407       .  A
C1927      N1934   1.438       .  S
C1928      C1929   1.407       .  A
C1928      H1933   1.083       .  S
C1929      C1930   1.416       .  A
C1930      N1931   1.433       .  S
N1931      H1935   1.046       .  S
N1931      H1936   1.046       .  S
N1934      H1937   1.046       .  S
N1934      H1938   1.045       .  S
C1939      C1940   1.408       .  A
C1939      C1944   1.406       .  A
C1939      H1946   1.084       .  S
C1940      C1941   1.417       .  A
C1941      C1942   1.404       .  A
C1941      N1948   1.440       .  S
C1942      C1943   1.407       .  A
C1942      H1947   1.084       .  S
C1943      C1944   1.411       .  A
C1944      N1945   1.432       .  S
N1945      H1949   1.044       .  S
N1945      H1950   1.046       .  S
N1948      H1951   1.043       .  S
N1948      H1952   1.046       .  S
C1953      C1954   1.404       .  A
C1953      C1958   1.409       .  A
C1953      H1960   1.082       .  S
C1954      C1955   1.413       .  A
C1955      C1956   1.414       .  A
C1955      N1962   1.438       .  S
C1956      C1957   1.413       .  A
C1956      H1961   1.083       .  S
C1957      C1958   1.421       .  A
C1958      N1959   1.438       .  S
N1959      H1963   1.046       .  S
N1959      H1964   1.046       .  S
N1962      H1965   1.046       .  S
N1962      H1966   1.045       .  S
C1967      C1968   1.406       .  A
C1967      C1972   1.399       .  A
C1967      H1974   1.084       .  S
C1968      C1969   1.414       .  A
C1969      C1970   1.400       .  A
C1969      N1976   1.433       .  S
C1970      C1971   1.403       .  A
C1970      H1975   1.084       .  S
C1971      C1972   1.409       .  A
C1972      N1973   1.431       .  S
N1973      H1977   1.046       .  S
N1973      H1978   1.045       .  S
N1976      H1979   1.046       .  S
N1976      H1980   1.046       .  S
C1981      C1982   1.401       .  A
C1981      C1986   1.403       .  A
C1981      H1988   1.084       .  S
C1982      C1983   1.414       .  A
C1983      C1984   1.404       .  A
C1983      N1990   1.440       .  S
C1984      C1985   1.411       .  A
C1984      H1989   1.073       .  S
C1985      C1986   1.433       .  A
C1986      N1987   1.436       .  S
N1987      H1991   1.042       .  S
N1987      H1992   1.041       .  S
N1990      H1993   1.046       .  S
N1990      H1994   1.046       .  S
C1995      C1996   1.406       .  A
C1995      C2000   1.400       .  A
C1995      H2002   1.077       .  S
C1996      C1997   1.421       .  A
C1997      C1998   1.399       .  A
C1997      N2004   1.434       .  S
C1998      C1999   1.397       .  A
C1998      H2003   1.084       .  S
C1999      C2000   1.410       .  A
C2000      N2001   1.434       .  S
N2001      H2005   1.045       .  S
N2001      H2006   1.046       .  S
N2004      H2007   1.046       .  S
N2004      H2008   1.046       .  S
C2009      C2010   1.402       .  A
C2009      C2014   1.404       .  A
C2009      H2016   1.084       .  S
C2010      C2011   1.406       .  A
C2011      C2012   1.400       .  A
C2011      N2018   1.433       .  S
C2012      C2013   1.401       .  A
C2012      H2017   1.084       .  S
C2013      C2014   1.407       .  A
C2014      N2015   1.432       .  S
N2015      H2019   1.045       .  S
N2015      H2020   1.046       .  S
N2018      H2021   1.045       .  S
N2018      H2022   1.046       .  S
C2023      C2024   1.411       .  A
C2023      C2028   1.409       .  A
C2023      H2030   1.084       .  S
C2024      C2025   1.417       .  A
C2025      C2026   1.411       .  A
C2025      N2032   1.435       .  S
C2026      C2027   1.402       .  A
C2026      H2031   1.083       .  S
C2027      C2028   1.415       .  A
C2028      N2029   1.439       .  S
N2029      H2033   1.046       .  S
N2029      H2034   1.044       .  S
N2032      H2035   1.044       .  S
N2032      H2036   1.046       .  S
C2037      C2038   1.399       .  A
C2037      C2042   1.405       .  A
C2037      H2044   1.082       .  S
C2038      C2039   1.403       .  A
C2039      C2040   1.404       .  A
C2039      N2046   1.432       .  S
C2040      C2041   1.409       .  A
C2040      H2045   1.084       .  S
C2041      C2042   1.414       .  A
C2042      N2043   1.435       .  S
N2043      H2047   1.046       .  S
N2043      H2048   1.045       .  S
N2046      H2049   1.046       .  S
N2046      H2050   1.045       .  S
C2051      C2052   1.408       .  A
C2051      C2056   1.405       .  A
C2051      H2058   1.083       .  S
C2052      C2053   1.418       .  A
C2053      C2054   1.400       .  A
C2053      N2060   1.433       .  S
C2054      C2055   1.398       .  A
C2054      H2059   1.084       .  S
C2055      C2056   1.410       .  A
C2056      N2057   1.438       .  S
N2057      H2061   1.046       .  S
N2057      H2062   1.046       .  S
N2060      H2063   1.046       .  S
N2060      H2064   1.046       .  S
