geometry optimzed in LAMMPS
_audit_creation_date              2020-11-30 
_audit_creation_method            'lammps2cif' 
_symmetry_space_group_name_H-M    'P1' 
_symmetry_Int_Tables_number       1 
_symmetry_cell_setting            triclinic 
loop_ 
_symmetry_equiv_pos_as_xyz 
  x,y,z 
_cell_length_a                    28.52211163 
_cell_length_b                    25.31502273820493 
_cell_length_c                    28.695336366006952 
_cell_angle_alpha                 89.79765232051372 
_cell_angle_beta                  89.41860161743564 
_cell_angle_gamma                 91.20705001500299 
loop_ 
_atom_site_label 
_atom_site_type_symbol 
_atom_site_fract_x 
_atom_site_fract_y 
_atom_site_fract_z 
_atom_site_charge 
C1          C  0.15488175  0.12186429  0.13339393    -0.01400
C2          C  0.28887649  0.12561956  0.46706796    -0.01400
C3          C  0.15317955  0.37234224  0.46566383    -0.01400
C4          C  0.28937776  0.37831275  0.13014943    -0.01400
O5          O  0.14663912  0.03592822  0.09091318    -0.56700
C6          C  0.17295424  0.41842010  0.98864899     0.75900
O7          O  0.27821452  0.06623809  0.03710874    -0.57900
C8          C  0.17197238  0.07135662  0.10985684     0.75900
C9          C  0.26772408  0.42427553  0.10368764     0.78300
Cd10       Cd  0.21658224  0.49803358  0.04787760     1.37500
O11         O  0.15506459  0.43031091  0.02779912    -0.56700
O12         O  0.22360451  0.42726948  0.10250097    -0.55500
C13         C  0.26592501  0.07581121  0.99565289     0.78300
O14         O  0.29035938  0.45932238  0.08046236    -0.57900
O15         O  0.20755159  0.44718116  0.97585968    -0.56300
O16         O  0.21539752  0.06471398  0.10648387    -0.56300
O17         O  0.23484893  0.04469672  0.97916223    -0.55500
O18         O  0.24911251  0.20938510  0.97451413    -0.56700
C19         C  0.27069826  0.32951232  0.10413844     0.75900
O20         O  0.16370555  0.31582838  0.03131247    -0.57900
C21         C  0.27166153  0.17274513  0.99420852     0.75900
C22         C  0.17163976  0.16828795  0.10346505     0.78300
Cd23       Cd  0.22250452  0.24993573  0.04911449     1.37500
O24         O  0.29560577  0.29572557  0.08318295    -0.56700
O25         O  0.19741651  0.16121990  0.06852791    -0.55500
C26         C  0.17500864  0.32317646  0.98900598     0.78300
O27         O  0.16249541  0.21604786  0.11178341    -0.57900
O28         O  0.22707759  0.32214118  0.10129406    -0.56300
O29         O  0.27794968  0.17823287  0.03777919    -0.56300
O30         O  0.20465684  0.29140472  0.97267955    -0.55500
C31         C  0.79187636  0.12397079  0.15616590    -0.01400
C32         C  0.65417618  0.12193338  0.49419818    -0.01400
C33         C  0.79227420  0.38043152  0.48676410    -0.01400
C34         C  0.64875923  0.37119848  0.15556736    -0.01400
O35         O  0.74994406  0.45562627  0.00076231    -0.56700
C36         C  0.77366866  0.07516584  0.12956695     0.75900
O37         O  0.69246481  0.03525048  0.00097506    -0.57900
C38         C  0.77665781  0.42193098  0.01874631     0.75900
C39         C  0.67198052  0.41696337  0.12766798     0.78300
Cd40       Cd  0.72524221  0.49732260  0.07498398     1.37500
O41         O  0.74491657  0.04194353  0.14722349    -0.56700
O42         O  0.71609268  0.41950637  0.12340584    -0.55500
C43         C  0.66895696  0.07116127  0.02037279     0.78300
O44         O  0.65004685  0.45264559  0.10620139    -0.57900
O45         O  0.78442517  0.06695206  0.08729896    -0.56300
O46         O  0.78396641  0.42769728  0.06193713    -0.56300
O47         O  0.66377143  0.06671624  0.06417348    -0.55500
O48         O  0.78262909  0.17757839  0.08488046    -0.56700
C49         C  0.77488521  0.32628618  0.01847026     0.75900
O50         O  0.65930848  0.17738813  0.06189605    -0.57900
C51         C  0.77473398  0.17184069  0.12818375     0.75900
C52         C  0.66903434  0.32340744  0.12940922     0.78300
Cd53       Cd  0.72250605  0.24770260  0.07381355     1.37500
O54         O  0.78552722  0.31708951  0.06052219    -0.56700
O55         O  0.69736050  0.29207790  0.14792415    -0.55500
C56         C  0.66986778  0.16802789  0.01969766     0.78300
O57         O  0.66250047  0.31639725  0.08611004    -0.57900
O58         O  0.74483517  0.29472496  0.00145223    -0.56300
O59         O  0.74899377  0.20639012  0.14639087    -0.56300
O60         O  0.69943795  0.20004749  0.00158793    -0.55500
C61         C  0.67257952  0.32854019  0.28550569    -0.10800
C62         C  0.70152428  0.37018664  0.30137971     0.11800
C63         C  0.71031624  0.41323557  0.27090541    -0.02600
C64         C  0.69622496  0.40957987  0.22445437    -0.05300
C65         C  0.66503252  0.36974759  0.20799489    -0.16100
C66         C  0.65009939  0.33029044  0.24153830     0.02800
C67         C  0.72325966  0.36852061  0.34899320     0.12800
C68         C  0.73504575  0.46400329  0.28551860     0.63400
H69         H  0.70797648  0.44147834  0.20213636     0.12800
C70         C  0.60856652  0.29251872  0.23384950     0.55500
H71         H  0.66666490  0.29502362  0.30828845     0.08600
C72         C  0.69653791  0.36842930  0.39096955    -0.05200
C73         C  0.72028749  0.37325845  0.43373075    -0.05900
C74         C  0.76955503  0.38168382  0.43681693    -0.15500
C75         C  0.79394072  0.39172161  0.39379017    -0.01100
C76         C  0.77199771  0.37721586  0.35180052    -0.08700
C77         C  0.64323144  0.36437786  0.39129843     0.65600
H78         H  0.69998152  0.37107105  0.46575541     0.11100
C79         C  0.83703722  0.42798060  0.38933224     0.64000
H80         H  0.79229701  0.37898292  0.31973170     0.08400
F81         F  0.56792596  0.32043675  0.22911242    -0.19000
F82         F  0.60049159  0.25966440  0.27156294    -0.15300
F83         F  0.61570694  0.26134472  0.19520023    -0.18800
F84         F  0.78227985  0.46047813  0.27574677    -0.22100
F85         F  0.72808151  0.47506885  0.33222707    -0.23600
F86         F  0.71793001  0.50587856  0.26063336    -0.17600
F87         F  0.87751683  0.39919876  0.38947440    -0.20100
F88         F  0.83767974  0.46523129  0.42434103    -0.21300
F89         F  0.83664838  0.45611395  0.34795081    -0.18400
F90         F  0.62451773  0.37488682  0.43493193    -0.18500
F91         F  0.62877649  0.31396130  0.37914451    -0.22400
F92         F  0.62504549  0.40035097  0.36029994    -0.24000
C93         C  0.74179890  0.11550820  0.38612532    -0.10800
C94         C  0.71233149  0.12792402  0.34911598     0.11800
C95         C  0.66360897  0.13155595  0.35954627    -0.02600
C96         C  0.64709061  0.11822241  0.40440522    -0.05300
C97         C  0.67679427  0.11859967  0.44359920    -0.16100
C98         C  0.72661899  0.11633149  0.43316099     0.02800
C99         C  0.73289249  0.13230375  0.30018352     0.12800
C100        C  0.62798865  0.15456219  0.32665769     0.63400
H101        H  0.60970324  0.11370790  0.40845164     0.12800
C102        C  0.76733155  0.11488200  0.46737559     0.55500
H103        H  0.77832398  0.10837203  0.37850796     0.08600
C104        C  0.77742880  0.15583543  0.28878837    -0.05200
C105        C  0.79635344  0.14861014  0.24346323    -0.05900
C106        C  0.76929966  0.12806463  0.20616632    -0.15500
C107        C  0.72061210  0.11774650  0.21660327    -0.01100
C108        C  0.70690828  0.11133524  0.26331215    -0.08700
C109        C  0.80493305  0.19150957  0.32162795     0.65600
H110        H  0.83175984  0.16312489  0.23675790     0.11100
C111        C  0.67967738  0.11619967  0.18276060     0.64000
H112        H  0.67348465  0.09202270  0.27049974     0.08400
F113        F  0.79756327  0.15714750  0.45800161    -0.19000
F114        F  0.79159934  0.06866885  0.46095252    -0.15300
F115        F  0.75515540  0.11773219  0.51359215    -0.18800
F116        F  0.60190424  0.11448895  0.30607039    -0.22100
F117        F  0.64970806  0.18563699  0.29298812    -0.23600
F118        F  0.59748207  0.18656976  0.35083056    -0.17600
F119        F  0.65749843  0.06758282  0.18509556    -0.20100
F120        F  0.69125132  0.12594483  0.13706855    -0.21300
F121        F  0.64776917  0.15387595  0.19594439    -0.18400
F122        F  0.82422836  0.23404981  0.29716016    -0.18500
F123        F  0.84095700  0.16369674  0.34136826    -0.22400
F124        F  0.77682445  0.21206701  0.35635740    -0.24000
C125        C  0.42335802  0.39226354  0.09983898    -0.10800
C126        C  0.44303721  0.37874244  0.14239885     0.11800
C127        C  0.41390815  0.36177172  0.17959227    -0.02600
C128        C  0.36526678  0.36176681  0.17339403    -0.05300
C129        C  0.34399296  0.37702442  0.13093088    -0.16100
C130        C  0.37488820  0.38745865  0.09192534     0.02800
C131        C  0.49462654  0.37638180  0.14482487     0.12800
C132        C  0.43420525  0.34196057  0.22512100     0.63400
H133        H  0.34385468  0.34784408  0.20222405     0.12800
C134        C  0.36212941  0.39135673  0.04070761     0.55500
H135        H  0.44690729  0.40255449  0.07109381     0.08600
C136        C  0.51983350  0.33396293  0.12629302    -0.05200
C137        C  0.56866234  0.33489270  0.12934387    -0.05900
C138        C  0.59424482  0.37509818  0.15275223    -0.15500
C139        C  0.56743911  0.41654965  0.17394920    -0.01100
C140        C  0.51861103  0.41731277  0.16720148    -0.08700
C141        C  0.49777085  0.28564873  0.10372629     0.65600
H142        H  0.58587915  0.30097035  0.11515836     0.11100
C143        C  0.58670402  0.45556316  0.20946936     0.64000
H144        H  0.49782712  0.44849316  0.18211350     0.08400
F145        F  0.38786089  0.35506277  0.01577876    -0.19000
F146        F  0.37467134  0.44131024  0.02492200    -0.15300
F147        F  0.31566578  0.38140766  0.03079310    -0.18800
F148        F  0.46071993  0.38158472  0.24573639    -0.22100
F149        F  0.46228377  0.29915897  0.21641911    -0.23600
F150        F  0.39959944  0.32603171  0.25666170    -0.17600
F151        F  0.55700697  0.49744839  0.21667024    -0.20100
F152        F  0.62869218  0.47685865  0.19503208    -0.21300
F153        F  0.59224343  0.43026075  0.25174197    -0.18400
F154        F  0.51066151  0.24107090  0.12809358    -0.18500
F155        F  0.51455824  0.28236527  0.05848420    -0.22400
F156        F  0.44946002  0.28608112  0.10276124    -0.24000
C157        C  0.02492472  0.42531562  0.46117567    -0.10800
C158        C  0.99987687  0.38538586  0.48508365     0.11800
C159        C  0.02812617  0.33110374  0.99417787    -0.02600
C160        C  0.07230100  0.33816578  0.49273190    -0.05300
C161        C  0.09907665  0.37912230  0.47107012    -0.16100
C162        C  0.07435358  0.42565281  0.45694844     0.02800
C163        C  0.94755504  0.38621021  0.48574859     0.12800
C164        C  0.00704406  0.28824065  0.02515440     0.63400
H165        H  0.09300538  0.29321808  0.99316090     0.12800
C166        C  0.09792073  0.47658179  0.43860895     0.55500
H167        H  0.00514779  0.45637458  0.44530814     0.08600
C168        C  0.92692426  0.41190926  0.00896231    -0.05200
C169        C  0.87771553  0.41000481  0.01231938    -0.05900
C170        C  0.84718974  0.38014380  0.48649040    -0.15500
C171        C  0.87410723  0.33714793  0.46860743    -0.01100
C172        C  0.92336069  0.34302286  0.46625356    -0.08700
C173        C  0.95436973  0.45472639  0.03474922     0.65600
H174        H  0.86136548  0.44239641  0.02976865     0.11100
C175        C  0.85313533  0.28371129  0.45393730     0.64000
H176        H  0.94415927  0.31230131  0.45075177     0.08400
F177        F  0.11960207  0.50289485  0.47478420    -0.19000
F178        F  0.06572588  0.51077704  0.41995689    -0.15300
F179        F  0.13038023  0.46697054  0.40401208    -0.18800
F180        F  0.98919177  0.24777900  0.99790791    -0.22100
F181        F  0.97195691  0.30816720  0.05313584    -0.23600
F182        F  0.04060704  0.26789373  0.05440761    -0.17600
F183        F  0.88563812  0.25317080  0.43083804    -0.20100
F184        F  0.81593963  0.28921900  0.42423716    -0.21300
F185        F  0.83856831  0.25567998  0.49304080    -0.18400
F186        F  0.92614816  0.48209100  0.06547049    -0.18500
F187        F  0.97372400  0.49069677  0.00337730    -0.22400
F188        F  0.98976940  0.43235044  0.06029260    -0.24000
C189        C  0.15915526  0.37678301  0.32979299    -0.10800
C190        C  0.20752573  0.38038661  0.32119559     0.11800
C191        C  0.23846617  0.37635097  0.35928672    -0.02600
C192        C  0.21943457  0.37335152  0.40473796    -0.05300
C193        C  0.17054548  0.36953158  0.41371716    -0.16100
C194        C  0.14097931  0.36292200  0.37402891     0.02800
C195        C  0.22487619  0.38102801  0.27182364     0.12800
C196        C  0.29126458  0.37362671  0.35212121     0.63400
H197        H  0.24304783  0.37288745  0.43398461     0.12800
C198        C  0.09528379  0.33065949  0.37480636     0.55500
H199        H  0.13546285  0.37959996  0.30071492     0.08600
C200        C  0.22101797  0.33603086  0.24314803    -0.05200
C201        C  0.24441803  0.33628416  0.19994183    -0.05900
C202        C  0.26813367  0.38120657  0.18101400    -0.15500
C203        C  0.27171458  0.42677394  0.21064598    -0.01100
C204        C  0.24880019  0.42591775  0.25456751    -0.08700
C205        C  0.19228011  0.28729256  0.25749346     0.65600
H206        H  0.24489670  0.29984200  0.18138360     0.11100
C207        C  0.30001369  0.47715897  0.20046875     0.64000
H208        H  0.25103937  0.46051381  0.27663137     0.08400
F209        F  0.08847348  0.30487707  0.33293814    -0.19000
F210        F  0.05730610  0.36257063  0.38165623    -0.15300
F211        F  0.09646283  0.29175805  0.40862299    -0.18800
F212        F  0.30856325  0.42023070  0.33281682    -0.22100
F213        F  0.30150527  0.33212668  0.32274382    -0.23600
F214        F  0.31439971  0.36555886  0.39365780    -0.17600
F215        F  0.26949982  0.51845305  0.19527257    -0.20100
F216        F  0.32848943  0.47552610  0.16164667    -0.21300
F217        F  0.32905840  0.48742829  0.23781682    -0.18400
F218        F  0.19372953  0.24857781  0.22404637    -0.15700
F219        F  0.14574352  0.29959045  0.26226596    -0.22400
F220        F  0.20867371  0.26687091  0.29887830    -0.24000
C221        C  0.42017133  0.07692236  0.45594326    -0.10800
C222        C  0.44502175  0.11743846  0.47894325     0.11800
C223        C  0.41913896  0.15983546  0.49708261    -0.02600
C224        C  0.37097152  0.16254573  0.48833533    -0.05300
C225        C  0.34418638  0.12033939  0.46915553    -0.16100
C226        C  0.37025358  0.07499597  0.45362456     0.02800
C227        C  0.49794862  0.11594822  0.48290184     0.12800
C228        C  0.43779786  0.19124496  0.03598518     0.63400
H229        H  0.35451092  0.19341899  0.00231572     0.12800
C230        C  0.34754557  0.02308312  0.43669449     0.55500
H231        H  0.44050165  0.04569106  0.44074940     0.08600
C232        C  0.52021115  0.06940733  0.00790672    -0.05200
C233        C  0.56953233  0.07416699  0.01008297    -0.05900
C234        C  0.59859625  0.12366899  0.49384824    -0.15500
C235        C  0.57296019  0.16599839  0.47317651    -0.01100
C236        C  0.52468513  0.15797657  0.46370528    -0.08700
C237        C  0.49522464  0.02295291  0.03207561     0.65600
H238        H  0.58758170  0.04093221  0.02422859     0.11100
C239        C  0.59426820  0.22084389  0.46293854     0.64000
H240        H  0.50640485  0.18654537  0.44300011     0.08400
F241        F  0.32415452  0.99785121  0.47293503    -0.19000
F242        F  0.38062946  0.98830195  0.42021233    -0.15300
F243        F  0.31653309  0.03089852  0.40105206    -0.18800
F244        F  0.46469571  0.23879569  0.49720345    -0.22100
F245        F  0.48070548  0.17684449  0.05336580    -0.23600
F246        F  0.40766490  0.19617888  0.07377946    -0.17600
F247        F  0.56316780  0.25281229  0.43990025    -0.20100
F248        F  0.63416197  0.21869687  0.43561410    -0.21300
F249        F  0.60512910  0.24552170  0.50441241    -0.18400
F250        F  0.52544548  0.99420782  0.05931215    -0.18500
F251        F  0.47613261  0.98903865  0.99946754    -0.22400
F252        F  0.45995493  0.04105959  0.06094903    -0.24000
C253        C  0.92263722  0.07919881  0.16985157    -0.10800
C254        C  0.94744206  0.12456486  0.15531573     0.11800
C255        C  0.92225334  0.16992096  0.14325598    -0.02600
C256        C  0.87307632  0.16834430  0.14570404    -0.05300
C257        C  0.84686585  0.12213181  0.15764461    -0.16100
C258        C  0.87303043  0.07686004  0.17205751     0.02800
C259        C  0.99977848  0.12304463  0.15097863     0.12800
C260        C  0.94711273  0.21895425  0.12449943     0.63400
H261        H  0.85505959  0.20421341  0.13773158     0.12800
C262        C  0.85054904  0.02480166  0.18817729     0.55500
H263        H  0.94279593  0.04474659  0.17838837     0.08600
C264        C  0.02962095  0.13395541  0.18874571    -0.05200
C265        C  0.07854382  0.13572786  0.18096718    -0.05900
C266        C  0.09970729  0.12498869  0.13703957    -0.15500
C267        C  0.06825092  0.12102697  0.09793784    -0.01100
C268        C  0.01948892  0.11554199  0.10677713    -0.08700
C269        C  0.00974519  0.14296587  0.23738125     0.65600
H270        H  0.10027339  0.14723081  0.20981915     0.11100
C271        C  0.08288752  0.13024527  0.04691623     0.64000
H272        H  0.99535890  0.10903793  0.07838396     0.08400
F273        F  0.81352806  0.03352402  0.21803688    -0.19000
F274        F  0.88196618  0.99410401  0.21217777    -0.15300
F275        F  0.83537543  0.99600082  0.15017436    -0.18800
F276        F  0.98113922  0.23654430  0.15501573    -0.22100
F277        F  0.91659789  0.25989636  0.11699445    -0.23600
F278        F  0.96771554  0.20629036  0.08254965    -0.17600
F279        F  0.04519228  0.12583551  0.01700941    -0.20100
F280        F  0.11518522  0.09464884  0.03179988    -0.21300
F281        F  0.10115344  0.18082157  0.04135170    -0.18400
F282        F  0.04449021  0.15532301  0.26913491    -0.18500
F283        F  0.98648128  0.09759991  0.25269034    -0.22400
F284        F  0.97861010  0.18406702  0.23690398    -0.24000
C285        C  0.20622795  0.12789496  0.35787483    -0.10800
C286        C  0.23827611  0.11998071  0.32173937     0.11800
C287        C  0.28681490  0.12182930  0.33201879    -0.02600
C288        C  0.30077366  0.13114101  0.37817944    -0.05300
C289        C  0.26889100  0.12884348  0.41631140    -0.16100
C290        C  0.21957116  0.13035845  0.40488093     0.02800
C291        C  0.21950014  0.11604605  0.27340828     0.12800
C292        C  0.32545205  0.11339547  0.29604774     0.63400
H293        H  0.33789612  0.13609645  0.38412764     0.12800
C294        C  0.17783893  0.13671549  0.43796562     0.55500
H295        H  0.16948538  0.13097618  0.34910328     0.08600
C296        C  0.18505105  0.07832127  0.25946352    -0.05200
C297        C  0.16575732  0.08272569  0.21458251    -0.05900
C298        C  0.18115394  0.12144998  0.18160610    -0.15500
C299        C  0.22345831  0.15078585  0.19364883    -0.01100
C300        C  0.23646936  0.15252397  0.24069184    -0.08700
C301        C  0.16664417  0.03406645  0.29100888     0.65600
H302        H  0.13777928  0.05538675  0.20493449     0.11100
C303        C  0.26028678  0.17415164  0.15967668     0.64000
H304        H  0.26264871  0.18119076  0.25192860     0.08400
F305        F  0.14419219  0.09817662  0.42867249    -0.19000
F306        F  0.15844752  0.18562129  0.43031936    -0.15300
F307        F  0.18787832  0.13285177  0.48427943    -0.18800
F308        F  0.34463793  0.16180825  0.28272746    -0.22100
F309        F  0.30959113  0.08694924  0.25709057    -0.23600
F310        F  0.36047725  0.08327108  0.31502642    -0.17600
F311        F  0.24546884  0.21956862  0.13900224    -0.20100
F312        F  0.27186410  0.13779202  0.12623040    -0.21300
F313        F  0.30185538  0.18740550  0.18184248    -0.18400
F314        F  0.15831002  0.98878221  0.26524417    -0.18500
F315        F  0.12495139  0.04903100  0.31154713    -0.22400
F316        F  0.19814034  0.02141676  0.32542847    -0.24000
C317        C  0.15566718  0.11807233  0.63458758    -0.01400
C318        C  0.28749351  0.12249117  0.96843307    -0.01400
C319        C  0.15579892  0.36975128  0.96096769    -0.01400
C320        C  0.29750328  0.37523999  0.62994755    -0.01400
O321        O  0.14866098  0.03260832  0.59106801    -0.56700
C322        C  0.17537087  0.41874184  0.49185795     0.75900
O323        O  0.27993789  0.06744845  0.53448917    -0.57900
C324        C  0.17356864  0.06852778  0.60993917     0.75900
C325        C  0.27527278  0.42086168  0.60380334     0.78300
Cd326      Cd  0.22264578  0.49486052  0.54954324     1.37500
O327        O  0.16216601  0.42899323  0.53313302    -0.56700
O328        O  0.23147648  0.42629382  0.60630746    -0.55500
C329        C  0.26769201  0.07790006  0.49328877     0.78300
O330        O  0.29713519  0.45358552  0.57759480    -0.57900
O331        O  0.20829748  0.44790894  0.47544032    -0.56300
O332        O  0.21721723  0.06336860  0.60565203    -0.56300
O333        O  0.23670906  0.04693407  0.47644636    -0.55500
O334        O  0.24951419  0.21177005  0.47570849    -0.56700
C335        C  0.27580667  0.32638546  0.60608292     0.75900
O336        O  0.16366814  0.31771631  0.53549176    -0.57900
C337        C  0.27246760  0.17472984  0.49427507     0.75900
C338        C  0.17170625  0.16558450  0.60500742     0.78300
Cd339      Cd  0.22197267  0.24944302  0.55128768     1.37500
O340        O  0.29804111  0.29317460  0.58184066    -0.56700
O341        O  0.19804983  0.15973147  0.57023885    -0.55500
C342        C  0.17187236  0.32411725  0.49240349     0.78300
O343        O  0.16134763  0.21301943  0.61332412    -0.57900
O344        O  0.23202144  0.31898753  0.60780394    -0.56300
O345        O  0.27863909  0.17874141  0.53792670    -0.56300
O346        O  0.19925750  0.29083862  0.47459630    -0.55500
C347        C  0.79340396  0.12987464  0.65873573    -0.01400
C348        C  0.65085796  0.11921500  0.99349994    -0.01400
C349        C  0.79518743  0.37422934  0.99139320    -0.01400
C350        C  0.65684320  0.37414306  0.65806946    -0.01400
O351        O  0.74349344  0.45884034  0.49781205    -0.56700
C352        C  0.77672498  0.08065610  0.63152037     0.75900
O353        O  0.69471202  0.03772651  0.50311417    -0.57900
C354        C  0.77254688  0.42688753  0.51455102     0.75900
C355        C  0.67765043  0.42089470  0.63004941     0.78300
Cd356      Cd  0.72417647  0.50123828  0.57314697     1.37500
O357        O  0.74813324  0.04692577  0.64856890    -0.56700
O358        O  0.72156644  0.42700922  0.62629686    -0.55500
C359        C  0.67116008  0.07400476  0.52189878     0.78300
O360        O  0.65346236  0.45320816  0.60682227    -0.57900
O361        O  0.78848480  0.07245160  0.58951394    -0.56300
O362        O  0.78253659  0.43378542  0.55704161    -0.56300
O363        O  0.66613456  0.07060652  0.56575023    -0.55500
O364        O  0.78901694  0.18317814  0.58637490    -0.56700
C365        C  0.77504519  0.33178465  0.51479053     0.75900
O366        O  0.66204352  0.18287524  0.56115742    -0.57900
C367        C  0.77859870  0.17765658  0.62928138     0.75900
C368        C  0.67766434  0.32767218  0.63072361     0.78300
Cd369      Cd  0.72751976  0.25188102  0.57265408     1.37500
O370        O  0.78811667  0.32312377  0.55624022    -0.56700
O371        O  0.70666131  0.29632958  0.64803831    -0.55500
C372        C  0.67379561  0.17109643  0.51975208     0.78300
O373        O  0.66946612  0.32100731  0.58763756    -0.57900
O374        O  0.74525977  0.29895270  0.49920681    -0.56300
O375        O  0.75166862  0.21205288  0.64577759    -0.56300
O376        O  0.70512655  0.20104999  0.50185228    -0.55500
C377        C  0.68508958  0.32856881  0.78595167    -0.10800
C378        C  0.71215977  0.37085518  0.80287188     0.11800
C379        C  0.71900122  0.41564746  0.77393045    -0.02600
C380        C  0.70335561  0.41383437  0.72761699    -0.05300
C381        C  0.67387850  0.37267379  0.71029121    -0.16100
C382        C  0.66139382  0.33130582  0.74286534     0.02800
C383        C  0.73214570  0.36835568  0.85101797     0.12800
C384        C  0.74254073  0.46633615  0.79066984     0.63400
H385        H  0.71273663  0.44736307  0.70608613     0.12800
C386        C  0.62074044  0.29251421  0.73570335     0.55500
H387        H  0.68103908  0.29392297  0.80783757     0.08600
C388        C  0.70360466  0.36687203  0.89182335    -0.05200
C389        C  0.72537796  0.37042595  0.93560346    -0.05900
C390        C  0.77444463  0.37783714  0.94081079    -0.15500
C391        C  0.80066953  0.38968763  0.89913787    -0.01100
C392        C  0.78058266  0.37719932  0.85582871    -0.08700
C393        C  0.65035211  0.36281533  0.88980927     0.65600
H394        H  0.70368899  0.36794101  0.96671443     0.11100
C395        C  0.84361668  0.42639792  0.89739922     0.64000
H396        H  0.80202412  0.38089153  0.82455997     0.08400
F397        F  0.57943418  0.31926490  0.73121554    -0.19000
F398        F  0.61403187  0.25997116  0.77386156    -0.15300
F399        F  0.62833369  0.26123980  0.69724891    -0.18800
F400        F  0.79013644  0.46467744  0.78188480    -0.22100
F401        F  0.73447097  0.47506158  0.83762990    -0.23600
F402        F  0.72494426  0.50878942  0.76706360    -0.17600
F403        F  0.88412572  0.39778618  0.89490353    -0.20100
F404        F  0.84455506  0.45998944  0.93515786    -0.21300
F405        F  0.84277078  0.45850066  0.85831512    -0.18400
F406        F  0.62975615  0.37210111  0.93283925    -0.18500
F407        F  0.63646234  0.31275164  0.87596182    -0.22400
F408        F  0.63353864  0.39970449  0.85885116    -0.24000
C409        C  0.73547046  0.12044866  0.88298660    -0.10800
C410        C  0.70415136  0.13068457  0.84684343     0.11800
C411        C  0.65537404  0.12885262  0.85827875    -0.02600
C412        C  0.64121791  0.11596666  0.90406062    -0.05300
C413        C  0.67214087  0.11770086  0.94230147    -0.16100
C414        C  0.72160820  0.11775769  0.93040139     0.02800
C415        C  0.72440627  0.13804732  0.79814074     0.12800
C416        C  0.61568364  0.14240117  0.82568583     0.63400
H417        H  0.60417716  0.10880740  0.90951279     0.12800
C418        C  0.76295511  0.11309161  0.96354750     0.55500
H419        H  0.77240145  0.11725023  0.87414736     0.08600
C420        C  0.76597780  0.16852070  0.78783840    -0.05200
C421        C  0.78886780  0.16162652  0.74424847    -0.05900
C422        C  0.76700457  0.13469481  0.70691018    -0.15500
C423        C  0.71869867  0.11988183  0.71480152    -0.01100
C424        C  0.70316877  0.11175813  0.76081109    -0.08700
C425        C  0.78570092  0.21138652  0.81942148     0.65600
H426        H  0.82269154  0.18125106  0.73838989     0.11100
C427        C  0.67991923  0.11864395  0.67865075     0.64000
H428        H  0.67109801  0.08863852  0.76675076     0.08400
F429        F  0.79601158  0.15231694  0.95324142    -0.19000
F430        F  0.78343212  0.06460270  0.95680896    -0.15300
F431        F  0.75216082  0.11756937  0.01001002    -0.18800
F432        F  0.59070870  0.09681278  0.81461323    -0.22100
F433        F  0.63077985  0.16685229  0.78536536    -0.23600
F434        F  0.58565084  0.17686447  0.84771998    -0.17600
F435        F  0.65967375  0.06913163  0.67679750    -0.20100
F436        F  0.69428477  0.13234964  0.63453094    -0.21300
F437        F  0.64570740  0.15373966  0.69152968    -0.18400
F438        F  0.79123668  0.25776924  0.79407451    -0.18500
F439        F  0.82900980  0.19673502  0.83568810    -0.22400
F440        F  0.75661935  0.22222039  0.85684113    -0.24000
C441        C  0.43081938  0.38654290  0.59365007    -0.10800
C442        C  0.45228537  0.37949716  0.63674381     0.11800
C443        C  0.42450643  0.36814017  0.67640043    -0.02600
C444        C  0.37584359  0.36610643  0.67157050    -0.05300
C445        C  0.35245098  0.37444064  0.62856789    -0.16100
C446        C  0.38187693  0.38098143  0.58781912     0.02800
C447        C  0.50417672  0.37922347  0.63906826     0.12800
C448        C  0.44602315  0.35686828  0.72385111     0.63400
H449        H  0.35640115  0.35684967  0.70281492     0.12800
C450        C  0.36696530  0.38012467  0.53694613     0.55500
H451        H  0.45311694  0.39431079  0.56344890     0.08600
C452        C  0.52965707  0.33507761  0.62467031    -0.05200
C453        C  0.57786360  0.33451943  0.63236313    -0.05900
C454        C  0.60236168  0.37593360  0.65524388    -0.15500
C455        C  0.57498067  0.41833988  0.67351084    -0.01100
C456        C  0.52725855  0.42079437  0.66169489    -0.08700
C457        C  0.50616013  0.28859909  0.60068366     0.65600
H458        H  0.59580825  0.29967606  0.62176703     0.11100
C459        C  0.59282596  0.45749857  0.70973109     0.64000
H460        H  0.50628161  0.45347224  0.67324325     0.08400
F461        F  0.38845469  0.33838569  0.51495263    -0.19000
F462        F  0.38238642  0.42643762  0.51562702    -0.15300
F463        F  0.31956709  0.37431842  0.52955878    -0.18800
F464        F  0.46962317  0.40124300  0.74000228    -0.22100
F465        F  0.47693040  0.31573696  0.72012122    -0.23600
F466        F  0.41253160  0.34270161  0.75714534    -0.17600
F467        F  0.56091259  0.49672763  0.71889943    -0.20100
F468        F  0.63349920  0.48219123  0.69504845    -0.21300
F469        F  0.60057800  0.43132416  0.75118479    -0.18400
F470        F  0.53702859  0.24827807  0.59167998    -0.18500
F471        F  0.48880656  0.30559577  0.55873394    -0.22400
F472        F  0.46995777  0.26824050  0.62817041    -0.24000
C473        C  0.02479005  0.41257724  0.95039550    -0.10800
C474        C  0.00168257  0.37264379  0.97613927     0.11800
C475        C  0.02469041  0.34241523  0.50322117    -0.02600
C476        C  0.07585314  0.32914262  0.98360412    -0.05300
C477        C  0.10111301  0.37116524  0.96158868    -0.16100
C478        C  0.07402344  0.41419415  0.94409215     0.02800
C479        C  0.94964070  0.37345816  0.98192771     0.12800
C480        C  0.00266792  0.29901043  0.53304111     0.63400
H481        H  0.08806255  0.30130989  0.50214535     0.12800
C482        C  0.09265623  0.46231984  0.91720852     0.55500
H483        H  0.00396172  0.44328097  0.93496462     0.08600
C484        C  0.92184089  0.42692631  0.50686750    -0.05200
C485        C  0.87266998  0.42405622  0.50515245    -0.05900
C486        C  0.84978671  0.36961902  0.99143937    -0.15500
C487        C  0.87407807  0.32672469  0.96979440    -0.01100
C488        C  0.92310345  0.33157650  0.96327860    -0.08700
C489        C  0.94553139  0.47298683  0.53223927     0.65600
H490        H  0.85444624  0.45820703  0.51740541     0.11100
C491        C  0.85054234  0.27452908  0.95522767     0.64000
H492        H  0.94171911  0.30188425  0.94394524     0.08400
F493        F  0.08110587  0.50730725  0.94159909    -0.19000
F494        F  0.07128353  0.46395887  0.87415823    -0.15300
F495        F  0.14028950  0.46373717  0.90943326    -0.18800
F496        F  0.99520669  0.25461151  0.50591903    -0.22100
F497        F  0.96082411  0.31385547  0.55323157    -0.23600
F498        F  0.03279667  0.28651308  0.56883404    -0.17600
F499        F  0.88125351  0.24220191  0.93160468    -0.20100
F500        F  0.81318676  0.28223332  0.92612754    -0.21300
F501        F  0.83536100  0.24713651  0.99446763    -0.18400
F502        F  0.91380788  0.50094378  0.55885744    -0.18500
F503        F  0.96602914  0.50791525  0.50066428    -0.22400
F504        F  0.97940284  0.45452275  0.56197681    -0.24000
C505        C  0.17482263  0.36555583  0.82589283    -0.10800
C506        C  0.22251866  0.37924583  0.82218434     0.11800
C507        C  0.24973426  0.38270296  0.86284678    -0.02600
C508        C  0.22704068  0.37699186  0.90626609    -0.05300
C509        C  0.17803423  0.36740738  0.91086452    -0.16100
C510        C  0.15334643  0.35391539  0.86919755     0.02800
C511        C  0.24434367  0.37790924  0.77514794     0.12800
C512        C  0.30270057  0.39029181  0.86027849     0.63400
H513        H  0.24802343  0.37900753  0.93739114     0.12800
C514        C  0.11114321  0.31602248  0.86832189     0.55500
H515        H  0.15566710  0.35827935  0.79401747     0.08600
C516        C  0.25160474  0.32998779  0.75177612    -0.05200
C517        C  0.26711545  0.33131380  0.70531210    -0.05900
C518        C  0.27899380  0.37876964  0.68148365    -0.15500
C519        C  0.27898256  0.42636686  0.70865659    -0.01100
C520        C  0.25848126  0.42514719  0.75353628    -0.08700
C521        C  0.24646795  0.27607244  0.77439945     0.65600
H522        H  0.27338412  0.29402840  0.68871660     0.11100
C523        C  0.30164554  0.47902190  0.69457741     0.64000
H524        H  0.25578929  0.46142967  0.77303906     0.08400
F525        F  0.11034581  0.28707683  0.82742078    -0.19000
F526        F  0.06977174  0.34314583  0.87095945    -0.15300
F527        F  0.11343091  0.27974749  0.90424824    -0.18800
F528        F  0.31393843  0.43835939  0.83964717    -0.22100
F529        F  0.32214034  0.35028473  0.83421830    -0.23600
F530        F  0.32279743  0.38937574  0.90398611    -0.17600
F531        F  0.26726001  0.51351657  0.68125701    -0.20100
F532        F  0.33464952  0.47544861  0.65948260    -0.21300
F533        F  0.32507762  0.49993510  0.73241578    -0.18400
F534        F  0.28921852  0.25163817  0.77073989    -0.15700
F535        F  0.21245847  0.24736259  0.75100474    -0.22400
F536        F  0.23432221  0.27663741  0.82107652    -0.24000
C537        C  0.41730863  0.07070182  0.95784223    -0.10800
C538        C  0.44246949  0.10954998  0.98260937     0.11800
C539        C  0.41718035  0.15127237  0.00244041    -0.02600
C540        C  0.36983776  0.15674775  0.99167100    -0.05300
C541        C  0.34244135  0.11595410  0.97111024    -0.16100
C542        C  0.36748263  0.06998771  0.95545386     0.02800
C543        C  0.49518226  0.10891498  0.98439395     0.12800
C544        C  0.44170957  0.20293010  0.52617020     0.63400
H545        H  0.35456798  0.19908947  0.49745715     0.12800
C546        C  0.34375858  0.01822662  0.93954558     0.55500
H547        H  0.43709239  0.03975082  0.94156043     0.08600
C548        C  0.52162879  0.07725880  0.50904230    -0.05200
C549        C  0.57120977  0.08011306  0.51144567    -0.05900
C550        C  0.59538112  0.11966355  0.99423706    -0.15500
C551        C  0.56844176  0.16222240  0.97556281    -0.01100
C552        C  0.52003759  0.15357621  0.96747755    -0.08700
C553        C  0.49492470  0.03394259  0.53586669     0.65600
H554        H  0.58822573  0.04734167  0.52766270     0.11100
C555        C  0.58846708  0.21782661  0.96604929     0.64000
H556        H  0.49981642  0.18398067  0.95098718     0.08400
F557        F  0.32270195  0.99304729  0.97720778    -0.19000
F558        F  0.37584530  0.98367798  0.92083980    -0.15300
F559        F  0.31042012  0.02582420  0.90604072    -0.18800
F560        F  0.44234347  0.23947444  0.01347865    -0.22100
F561        F  0.47287156  0.18123506  0.55706777    -0.23600
F562        F  0.40873892  0.22979553  0.55217980    -0.17600
F563        F  0.55605424  0.24998361  0.94508254    -0.20100
F564        F  0.62721012  0.21716198  0.93699294    -0.21300
F565        F  0.60054807  0.24140438  0.00769858    -0.18400
F566        F  0.52422646  0.00491052  0.56385918    -0.18500
F567        F  0.47325946  0.99925287  0.50551131    -0.22400
F568        F  0.46141923  0.05624367  0.56441973    -0.24000
C569        C  0.92176726  0.07980385  0.67521265    -0.10800
C570        C  0.94845950  0.12347731  0.65989630     0.11800
C571        C  0.92542037  0.17086353  0.64950931    -0.02600
C572        C  0.87615131  0.17208806  0.65217922    -0.05300
C573        C  0.84805999  0.12721284  0.66416374    -0.16100
C574        C  0.87235097  0.08105730  0.67948397     0.02800
C575        C  0.00056988  0.11890993  0.65468494     0.12800
C576        C  0.95267357  0.21914945  0.63230277     0.63400
H577        H  0.85951233  0.20875684  0.64378069     0.12800
C578        C  0.84819928  0.03120188  0.69826108     0.55500
H579        H  0.94012196  0.04390996  0.68336149     0.08600
C580        C  0.03113383  0.12695462  0.69237134    -0.05200
C581        C  0.07985313  0.12925091  0.68372104    -0.05900
C582        C  0.10042043  0.12023070  0.63915661    -0.15500
C583        C  0.06837778  0.11722538  0.60053130    -0.01100
C584        C  0.01955655  0.11296115  0.60991836    -0.08700
C585        C  0.01220927  0.13301535  0.74178634     0.65600
H586        H  0.10189162  0.14007611  0.71254819     0.11100
C587        C  0.08251583  0.12779799  0.54964842     0.64000
H588        H  0.99488037  0.10901348  0.58163511     0.08400
F589        F  0.80919287  0.04283000  0.72450706    -0.19000
F590        F  0.87772551  0.00362977  0.72716805    -0.15300
F591        F  0.83571499  0.99849577  0.66176057    -0.18800
F592        F  0.98919202  0.23143129  0.66193824    -0.22100
F593        F  0.92474077  0.26304542  0.62916430    -0.23600
F594        F  0.97043676  0.20834163  0.58860953    -0.17600
F595        F  0.04536018  0.11970315  0.51961248    -0.20100
F596        F  0.11758657  0.09565582  0.53447570    -0.21300
F597        F  0.09699231  0.17995150  0.54463469    -0.18400
F598        F  0.04762634  0.14252985  0.77351831    -0.18500
F599        F  0.98861213  0.08707901  0.75516051    -0.22400
F600        F  0.98166329  0.17462774  0.74402573    -0.24000
C601        C  0.20670114  0.11669774  0.85789659    -0.10800
C602        C  0.23966274  0.10802663  0.82261232     0.11800
C603        C  0.28800468  0.11290122  0.83394476    -0.02600
C604        C  0.30060582  0.12587686  0.87978454    -0.05300
C605        C  0.26814650  0.12414928  0.91733600    -0.16100
C606        C  0.21910582  0.12313093  0.90492791     0.02800
C607        C  0.22176920  0.10395536  0.77375247     0.12800
C608        C  0.32853751  0.10316209  0.80044898     0.63400
H609        H  0.33748321  0.13264340  0.88624363     0.12800
C610        C  0.17671203  0.12962652  0.93699053     0.55500
H611        H  0.16997236  0.11766781  0.84846356     0.08600
C612        C  0.18567176  0.06865197  0.75905155    -0.05200
C613        C  0.16668569  0.07535626  0.71426556    -0.05900
C614        C  0.18194995  0.11583218  0.68276604    -0.15500
C615        C  0.22428375  0.14438955  0.69564516    -0.01100
C616        C  0.23942158  0.14081833  0.74185260    -0.08700
C617        C  0.16551127  0.02374409  0.78875689     0.65600
H618        H  0.13858682  0.04859640  0.70368450     0.11100
C619        C  0.25850520  0.17355621  0.66262149     0.64000
H620        H  0.26779696  0.16595879  0.75348102     0.08400
F621        F  0.14591196  0.08744438  0.93083412    -0.19000
F622        F  0.15410713  0.17547199  0.92500982    -0.15300
F623        F  0.18656168  0.13216204  0.98341593    -0.18800
F624        F  0.35314838  0.15010363  0.79272217    -0.22100
F625        F  0.31470819  0.08277527  0.75821585    -0.23600
F626        F  0.35842333  0.06717220  0.82015483    -0.17600
F627        F  0.24038275  0.22020565  0.64750639    -0.20100
F628        F  0.26989715  0.14196429  0.62550166    -0.21300
F629        F  0.30067653  0.18658586  0.68373162    -0.18400
F630        F  0.16237894  0.97826873  0.76229772    -0.18500
F631        F  0.12092277  0.03643577  0.80375098    -0.22400
F632        F  0.19266900  0.01276114  0.82707021    -0.24000
C633        C  0.15117383  0.62113184  0.13124630    -0.01400
C634        C  0.28791763  0.62362896  0.46425538    -0.01400
C635        C  0.15468986  0.87064639  0.46431502    -0.01400
C636        C  0.29293689  0.87160451  0.13065459    -0.01400
O637        O  0.15290810  0.56118327  0.06344854    -0.56700
C638        C  0.17453334  0.91901478  0.99209325     0.75900
O639        O  0.27734575  0.56859569  0.03446221    -0.57900
C640        C  0.16466970  0.57053554  0.10501890     0.75900
C641        C  0.27191453  0.91904403  0.10591533     0.78300
Cd642      Cd  0.22012706  0.99501881  0.05299431     1.37500
O643        O  0.16040107  0.92817574  0.03332396    -0.56700
O644        O  0.22815691  0.92514550  0.10812761    -0.55500
C645        C  0.26758792  0.57713932  0.99210468     0.78300
O646        O  0.29450421  0.95252738  0.08109788    -0.57900
O647        O  0.20733662  0.94924936  0.97701836    -0.56300
O648        O  0.19488908  0.53982400  0.12115028    -0.56300
O649        O  0.23780862  0.54540179  0.97455597    -0.55500
O650        O  0.24838826  0.70933071  0.97258246    -0.56700
C651        C  0.27262960  0.82444819  0.10374797     0.75900
O652        O  0.16474076  0.81693146  0.03347071    -0.57900
C653        C  0.27265431  0.67361930  0.99149488     0.75900
C654        C  0.16946006  0.66787244  0.10231615     0.78300
Cd655      Cd  0.22186716  0.74827734  0.04793271     1.37500
O656        O  0.29632802  0.79016590  0.08212611    -0.56700
O657        O  0.19371179  0.66069705  0.06623596    -0.55500
C658        C  0.17293003  0.82400808  0.99051520     0.78300
O659        O  0.16369221  0.71571237  0.11277638    -0.57900
O660        O  0.22882634  0.81911554  0.10091770    -0.56300
O661        O  0.27970132  0.67905594  0.03494435    -0.56300
O662        O  0.20005696  0.79087317  0.97203919    -0.55500
C663        C  0.79058175  0.62736001  0.15822324    -0.01400
C664        C  0.65204033  0.62381322  0.49305578    -0.01400
C665        C  0.79504435  0.88245561  0.48872692    -0.01400
C666        C  0.65349547  0.86749193  0.15594287    -0.01400
O667        O  0.74488197  0.95642188  0.99870939    -0.56700
C668        C  0.77540945  0.57708955  0.13149106     0.75900
O669        O  0.69708901  0.53452203  0.99968489    -0.57900
C670        C  0.77318831  0.92388820  0.01591945     0.75900
C671        C  0.67354766  0.91399643  0.12700031     0.78300
Cd672      Cd  0.72225308  0.99665223  0.07409919     1.37500
O673        O  0.74728884  0.54284334  0.14852114    -0.56700
O674        O  0.71744359  0.91918352  0.12205320    -0.55500
C675        C  0.67204534  0.57012538  0.01755222     0.78300
O676        O  0.64938308  0.94791900  0.10568843    -0.57900
O677        O  0.78725758  0.56894522  0.08950097    -0.56300
O678        O  0.78155079  0.92976048  0.05888946    -0.56300
O679        O  0.66537393  0.56613052  0.06118185    -0.55500
O680        O  0.78634266  0.67874785  0.08487106    -0.56700
C681        C  0.77449274  0.82852200  0.01486699     0.75900
O682        O  0.66132695  0.67808221  0.05710213    -0.57900
C683        C  0.77525411  0.67387421  0.12767530     0.75900
C684        C  0.67402235  0.82112982  0.12831436     0.78300
Cd685      Cd  0.72546783  0.74758186  0.07007615     1.37500
O686        O  0.78651260  0.81877956  0.05641913    -0.56700
O687        O  0.70525102  0.79198042  0.14469271    -0.55500
C688        C  0.67388859  0.66703379  0.01577428     0.78300
O689        O  0.66420290  0.81321373  0.08570107    -0.57900
O690        O  0.74473630  0.79649609  0.99804481    -0.56300
O691        O  0.74778744  0.70818996  0.14333136    -0.56300
O692        O  0.70524380  0.69752050  0.99859446    -0.55500
C693        C  0.68960721  0.82739335  0.28370666    -0.10800
C694        C  0.71473316  0.87219710  0.29876699     0.11800
C695        C  0.71814420  0.91602710  0.26834095    -0.02600
C696        C  0.70121145  0.91123242  0.22270304    -0.05300
C697        C  0.67334983  0.86772504  0.20729628    -0.16100
C698        C  0.66460557  0.82662888  0.24109162     0.02800
C699        C  0.73402964  0.87420953  0.34743422     0.12800
C700        C  0.73707698  0.96940567  0.28399699     0.63400
H701        H  0.70780770  0.94452331  0.20012680     0.12800
C702        C  0.62612678  0.78478704  0.23589798     0.55500
H703        H  0.68748948  0.79387458  0.30714208     0.08600
C704        C  0.70481242  0.87264867  0.38780426    -0.05200
C705        C  0.72570610  0.87708449  0.43205598    -0.05900
C706        C  0.77447607  0.88614549  0.43803772    -0.15500
C707        C  0.80083920  0.89931320  0.39683378    -0.01100
C708        C  0.78202846  0.88564660  0.35313876    -0.08700
C709        C  0.65173454  0.86699223  0.38483879     0.65600
H710        H  0.70359936  0.87355781  0.46281535     0.11100
C711        C  0.84226347  0.93820221  0.39621525     0.64000
H712        H  0.80432634  0.88886877  0.32247218     0.08400
F713        F  0.58307886  0.80826954  0.23277356    -0.19000
F714        F  0.62339035  0.75247799  0.27456897    -0.15300
F715        F  0.63378517  0.75358940  0.19742981    -0.18800
F716        F  0.78526627  0.96919642  0.28575669    -0.22100
F717        F  0.71878191  0.98242808  0.32719625    -0.23600
F718        F  0.72483675  0.00832262  0.25313429    -0.17600
F719        F  0.88402881  0.91176351  0.39458848    -0.20100
F720        F  0.84096200  0.97137939  0.43424357    -0.21300
F721        F  0.84081579  0.97065485  0.35740695    -0.18400
F722        F  0.63011837  0.87896760  0.42680570    -0.18500
F723        F  0.63925423  0.81564649  0.37356462    -0.22400
F724        F  0.63475755  0.90100761  0.35148416    -0.24000
C725        C  0.73276653  0.62134861  0.38027007    -0.10800
C726        C  0.69991037  0.62880818  0.34492501     0.11800
C727        C  0.65149419  0.62343218  0.35772365    -0.02600
C728        C  0.63965249  0.61298979  0.40460521    -0.05300
C729        C  0.67179279  0.61941131  0.44152625    -0.16100
C730        C  0.72073880  0.61999806  0.42803808     0.02800
C731        C  0.71910862  0.63750364  0.29599972     0.12800
C732        C  0.61003261  0.62801350  0.32502285     0.63400
H733        H  0.60345381  0.60259742  0.41201513     0.12800
C734        C  0.76351077  0.61864675  0.45961696     0.55500
H735        H  0.76949051  0.61915203  0.37043935     0.08600
C736        C  0.76058818  0.66829322  0.28597043    -0.05200
C737        C  0.78410047  0.66098297  0.24287910    -0.05900
C738        C  0.76314571  0.63289626  0.20564636    -0.15500
C739        C  0.71481437  0.61787777  0.21274726    -0.01100
C740        C  0.69834396  0.61107778  0.25853322    -0.08700
C741        C  0.78036039  0.71086496  0.31795772     0.65600
H742        H  0.81779389  0.68072338  0.23749841     0.11100
C743        C  0.67694589  0.61361680  0.17579083     0.64000
H744        H  0.66713050  0.58680223  0.26399597     0.08400
F745        F  0.79190800  0.66249876  0.45024297    -0.19000
F746        F  0.78868801  0.57381592  0.44970782    -0.15300
F747        F  0.75396764  0.61831444  0.50654222    -0.18800
F748        F  0.59480944  0.57800884  0.31205610    -0.22100
F749        F  0.62043717  0.65738482  0.28584022    -0.23600
F750        F  0.57326912  0.65286873  0.34728970    -0.17600
F751        F  0.65910452  0.56299576  0.17435568    -0.20100
F752        F  0.69165085  0.62720899  0.13174229    -0.21300
F753        F  0.64077412  0.64676643  0.18740709    -0.18400
F754        F  0.78874438  0.75671023  0.29251942    -0.18500
F755        F  0.82230223  0.69458038  0.33638594    -0.22400
F756        F  0.74992219  0.72343340  0.35385936    -0.24000
C757        C  0.42684000  0.88199408  0.09810893    -0.10800
C758        C  0.44721604  0.87054903  0.14098518     0.11800
C759        C  0.41821921  0.85648857  0.17924513    -0.02600
C760        C  0.36948892  0.85597440  0.17338421    -0.05300
C761        C  0.34763350  0.86926279  0.13069605    -0.16100
C762        C  0.37804505  0.87795653  0.09097708     0.02800
C763        C  0.49922787  0.86954615  0.14406982     0.12800
C764        C  0.43857449  0.84212128  0.22640390     0.63400
H765        H  0.34846118  0.84430579  0.20318652     0.12800
C766        C  0.36415804  0.88113438  0.03984189     0.55500
H767        H  0.44988870  0.89181313  0.06888757     0.08600
C768        C  0.52497886  0.82661853  0.12733913    -0.05200
C769        C  0.57358601  0.82647105  0.13361018    -0.05900
C770        C  0.59858965  0.86816388  0.15567440    -0.15500
C771        C  0.57108004  0.90933860  0.17606247    -0.01100
C772        C  0.52250318  0.91034353  0.16742842    -0.08700
C773        C  0.50123694  0.78131621  0.10200586     0.65600
H774        H  0.59162352  0.79201278  0.12199008     0.11100
C775        C  0.59034094  0.94960553  0.21044316     0.64000
H776        H  0.50138596  0.94204233  0.18084722     0.08400
F777        F  0.38739820  0.84244969  0.01532266    -0.19000
F778        F  0.37840396  0.92980358  0.02223912    -0.15300
F779        F  0.31710881  0.87399491  0.03107543    -0.18800
F780        F  0.46087001  0.88584992  0.24541107    -0.22100
F781        F  0.47046274  0.80211318  0.22133731    -0.23600
F782        F  0.40431820  0.82484973  0.25778665    -0.17600
F783        F  0.55763126  0.98685893  0.22276876    -0.20100
F784        F  0.62803246  0.97652536  0.19154939    -0.21300
F785        F  0.60330619  0.92440987  0.25092418    -0.18400
F786        F  0.53243581  0.74249414  0.08959212    -0.18500
F787        F  0.48176413  0.80061114  0.06180445    -0.22400
F788        F  0.46651710  0.75844012  0.12988685    -0.24000
C789        C  0.02636879  0.92295125  0.46021451    -0.10800
C790        C  0.00187826  0.88415547  0.48593529     0.11800
C791        C  0.02557840  0.83850102  0.00175805    -0.02600
C792        C  0.07407856  0.83659696  0.49294726    -0.05300
C793        C  0.10048223  0.87636264  0.46909618    -0.16100
C794        C  0.07524881  0.92138863  0.45262891     0.02800
C795        C  0.94982927  0.88525153  0.48755554     0.12800
C796        C  0.00304849  0.79700998  0.03339001     0.63400
H797        H  0.08994343  0.79944646  0.00153728     0.12800
C798        C  0.09556879  0.96894963  0.42596448     0.55500
H799        H  0.00673601  0.95463379  0.44475469     0.08600
C800        C  0.92332674  0.91808485  0.01173604    -0.05200
C801        C  0.87410914  0.91642853  0.01090524    -0.05900
C802        C  0.84978468  0.88046216  0.48955437    -0.15500
C803        C  0.87593234  0.83809326  0.46942558    -0.01100
C804        C  0.92512300  0.84367991  0.46619303    -0.08700
C805        C  0.94863429  0.95905890  0.04165645     0.65600
H806        H  0.85671129  0.94917380  0.02680612     0.11100
C807        C  0.85428343  0.78517081  0.45420717     0.64000
H808        H  0.94552332  0.81367163  0.44907577     0.08400
F809        F  0.08813500  0.01376842  0.45221692    -0.19000
F810        F  0.07225436  0.97401797  0.38418321    -0.15300
F811        F  0.14272279  0.96701284  0.41569515    -0.18800
F812        F  0.98011129  0.75907620  0.00708994    -0.22100
F813        F  0.97153771  0.82014960  0.06359948    -0.23600
F814        F  0.03639227  0.77240735  0.06021751    -0.17600
F815        F  0.88654905  0.75401819  0.43143351    -0.20100
F816        F  0.81750978  0.79170358  0.42411515    -0.21300
F817        F  0.83888966  0.75711713  0.49302484    -0.18400
F818        F  0.91801641  0.98443138  0.07146257    -0.18500
F819        F  0.97051896  0.99694527  0.01381934    -0.22400
F820        F  0.98180903  0.93485859  0.06881125    -0.24000
C821        C  0.15964573  0.86843032  0.32833005    -0.10800
C822        C  0.20794672  0.87226068  0.31950363     0.11800
C823        C  0.23916555  0.87063326  0.35743399    -0.02600
C824        C  0.22048279  0.87007535  0.40292451    -0.05300
C825        C  0.17168568  0.86654162  0.41237299    -0.16100
C826        C  0.14186285  0.85711916  0.37323702     0.02800
C827        C  0.22545820  0.87258265  0.27040737     0.12800
C828        C  0.29206729  0.86900137  0.35019069     0.63400
H829        H  0.24462072  0.87018968  0.43151777     0.12800
C830        C  0.09748107  0.82244941  0.37551542     0.55500
H831        H  0.13580740  0.86900107  0.29925769     0.08600
C832        C  0.22363563  0.82702630  0.24220815    -0.05200
C833        C  0.24842748  0.82754952  0.19972136    -0.05900
C834        C  0.27185523  0.87309456  0.18150664    -0.15500
C835        C  0.27388442  0.91880005  0.21108084    -0.01100
C836        C  0.24902786  0.91785929  0.25374603    -0.08700
C837        C  0.19606112  0.77742635  0.25646017     0.65600
H838        H  0.25011691  0.79099628  0.18092911     0.11100
C839        C  0.30185106  0.96969474  0.20168926     0.64000
H840        H  0.24979849  0.95265788  0.27567133     0.08400
F841        F  0.09209329  0.79351269  0.33502623    -0.19000
F842        F  0.05809004  0.85262970  0.38062096    -0.15300
F843        F  0.09998353  0.78595085  0.41125549    -0.18800
F844        F  0.30865541  0.91700996  0.33310718    -0.22100
F845        F  0.30316286  0.82950043  0.31901283    -0.23600
F846        F  0.31521216  0.85881949  0.39134145    -0.17600
F847        F  0.27104308  0.01003253  0.19325960    -0.20100
F848        F  0.33311693  0.96724782  0.16501519    -0.21300
F849        F  0.32787731  0.98225066  0.24072354    -0.18400
F850        F  0.19774515  0.73944724  0.22237602    -0.15700
F851        F  0.14932005  0.78826065  0.26241072    -0.22400
F852        F  0.21371086  0.75678032  0.29721389    -0.24000
C853        C  0.42004255  0.57774303  0.45624743    -0.10800
C854        C  0.44397104  0.62126706  0.47578021     0.11800
C855        C  0.41723979  0.66498919  0.48969205    -0.02600
C856        C  0.36909855  0.66522616  0.48095842    -0.05300
C857        C  0.34322134  0.62005943  0.46639302    -0.16100
C858        C  0.37021092  0.57436707  0.45380698     0.02800
C859        C  0.49665701  0.62060928  0.48167141     0.12800
C860        C  0.44354573  0.69792150  0.02387158     0.63400
H861        H  0.35561245  0.69638210  0.99595058     0.12800
C862        C  0.34847324  0.52090338  0.43986488     0.55500
H863        H  0.44099822  0.54533169  0.44421458     0.08600
C864        C  0.52228328  0.57246562  0.00169118    -0.05200
C865        C  0.57188487  0.57548213  0.00469616    -0.05900
C866        C  0.59679207  0.62774096  0.49438828    -0.15500
C867        C  0.57211673  0.66950687  0.47173542    -0.01100
C868        C  0.52401486  0.66162800  0.46157550    -0.08700
C869        C  0.49590268  0.52637678  0.02489559     0.65600
H870        H  0.58893694  0.54200662  0.01976709     0.11100
C871        C  0.59446302  0.72343838  0.45990519     0.64000
H872        H  0.50651641  0.68934279  0.43929162     0.08400
F873        F  0.32776910  0.49668072  0.47819165    -0.19000
F874        F  0.38190110  0.48684229  0.42288087    -0.15300
F875        F  0.31540429  0.52589631  0.40559549    -0.18800
F876        F  0.45897604  0.74669227  0.48454378    -0.22100
F877        F  0.47121593  0.67297340  0.05614067    -0.23600
F878        F  0.41093687  0.72709686  0.04828305    -0.17600
F879        F  0.56375452  0.75566685  0.43662318    -0.20100
F880        F  0.63377641  0.71916430  0.43195266    -0.21300
F881        F  0.60652449  0.74903342  0.50066834    -0.18400
F882        F  0.52402161  0.49949853  0.05565989    -0.18500
F883        F  0.48069653  0.49095186  0.99151483    -0.22400
F884        F  0.45771652  0.54427204  0.04990562    -0.24000
C885        C  0.92043304  0.58597550  0.18270064    -0.10800
C886        C  0.94567533  0.63064418  0.16713002     0.11800
C887        C  0.92087890  0.67585647  0.15384076    -0.02600
C888        C  0.87161691  0.67379860  0.15380278    -0.05300
C889        C  0.84517668  0.62748253  0.16519465    -0.16100
C890        C  0.87078197  0.58376159  0.18354972     0.02800
C891        C  0.99756316  0.62737739  0.15981553     0.12800
C892        C  0.94631305  0.72474457  0.13529512     0.63400
H893        H  0.85377455  0.70906641  0.14360706     0.12800
C894        C  0.84770041  0.53347110  0.20272634     0.55500
H895        H  0.94018538  0.55172966  0.19272276     0.08600
C896        C  0.03052063  0.63927259  0.19467066    -0.05200
C897        C  0.07865955  0.64122339  0.18261513    -0.05900
C898        C  0.09630333  0.62708410  0.13783077    -0.15500
C899        C  0.06140580  0.62021155  0.10194690    -0.01100
C900        C  0.01359797  0.61654781  0.11490027    -0.08700
C901        C  0.01494043  0.64826980  0.24476719     0.65600
H902        H  0.10275351  0.65458499  0.20899630     0.11100
C903        C  0.06925005  0.61981621  0.04925612     0.64000
H904        H  0.98744079  0.60823784  0.08854162     0.08400
F905        F  0.80925051  0.54499382  0.22988105    -0.19000
F906        F  0.87806074  0.50595798  0.23081244    -0.15300
F907        F  0.83454874  0.50060249  0.16660316    -0.18800
F908        F  0.98133454  0.74091554  0.16528977    -0.22100
F909        F  0.91644753  0.76660704  0.12933304    -0.23600
F910        F  0.96580773  0.71262035  0.09266868    -0.17600
F911        F  0.03480120  0.64851709  0.02751624    -0.20100
F912        F  0.06621495  0.56844890  0.03316663    -0.21300
F913        F  0.11084502  0.64287272  0.03506553    -0.18400
F914        F  0.05259735  0.65795096  0.27384633    -0.18500
F915        F  0.99109122  0.60376385  0.26119599    -0.22400
F916        F  0.98561130  0.69092350  0.24731280    -0.24000
C917        C  0.20685646  0.62336761  0.35346616    -0.10800
C918        C  0.23924684  0.61354122  0.31784102     0.11800
C919        C  0.28769907  0.61509463  0.32921581    -0.02600
C920        C  0.30076611  0.62551324  0.37542842    -0.05300
C921        C  0.26838793  0.62519523  0.41312272    -0.16100
C922        C  0.21937260  0.62653725  0.40075754     0.02800
C923        C  0.22048626  0.60869676  0.26927567     0.12800
C924        C  0.32808528  0.60492196  0.29563760     0.63400
H925        H  0.33785889  0.63002140  0.38170353     0.12800
C926        C  0.17727782  0.63359351  0.43316163     0.55500
H927        H  0.17029297  0.62693682  0.34412812     0.08600
C928        C  0.18227682  0.57473394  0.25676711    -0.05200
C929        C  0.16162181  0.58108165  0.21267310    -0.05900
C930        C  0.17869214  0.61795357  0.17890566    -0.15500
C931        C  0.22373421  0.64192866  0.18886059    -0.01100
C932        C  0.23911653  0.64278684  0.23522308    -0.08700
C933        C  0.16127317  0.53166364  0.28808739     0.65600
H934        H  0.13142296  0.55637630  0.20418537     0.11100
C935        C  0.26027661  0.65904649  0.15247930     0.64000
H936        H  0.26807772  0.66893509  0.24452393     0.08400
F937        F  0.14297724  0.59600079  0.42309325    -0.19000
F938        F  0.15901666  0.68306876  0.42557904    -0.15300
F939        F  0.18672044  0.62890759  0.47956866    -0.18800
F940        F  0.35420725  0.65112349  0.28946826    -0.22100
F941        F  0.31412572  0.58684916  0.25275747    -0.23600
F942        F  0.35668040  0.56697388  0.31443292    -0.17600
F943        F  0.25122603  0.70848729  0.13525097    -0.20100
F944        F  0.26171756  0.62257670  0.11698842    -0.21300
F945        F  0.30496493  0.66150498  0.17102279    -0.18400
F946        F  0.15590079  0.48547064  0.26288553    -0.18500
F947        F  0.11754786  0.54683946  0.30368413    -0.22400
F948        F  0.18886163  0.52050855  0.32603236    -0.24000
C949        C  0.15665902  0.61886331  0.63098306    -0.01400
C950        C  0.28921440  0.62406927  0.96510776    -0.01400
C951        C  0.15378909  0.87231571  0.96456308    -0.01400
C952        C  0.29421638  0.87331412  0.63007176    -0.01400
O953        O  0.14845014  0.53374458  0.58760282    -0.56700
C954        C  0.17745202  0.91786010  0.49034091     0.75900
O955        O  0.27936064  0.56730042  0.53299128    -0.57900
C956        C  0.17371224  0.56947179  0.60612762     0.75900
C957        C  0.27258098  0.92038755  0.60534760     0.78300
Cd958      Cd  0.22219667  0.99539107  0.55037266     1.37500
O959        O  0.15367831  0.95050008  0.51399375    -0.56700
O960        O  0.22872357  0.92659602  0.60782835    -0.55500
C961        C  0.26738694  0.57617894  0.49132485     0.78300
O962        O  0.29509418  0.95354382  0.58017703    -0.57900
O963        O  0.22154558  0.92418790  0.49272423    -0.56300
O964        O  0.21712550  0.56407226  0.60151488    -0.56300
O965        O  0.23710854  0.54408602  0.47472963    -0.55500
O966        O  0.24750051  0.70920456  0.47252067    -0.56700
C967        C  0.27354819  0.82555461  0.60394455     0.75900
O968        O  0.16527197  0.81682930  0.53401394    -0.57900
C969        C  0.27118768  0.67280469  0.49111046     0.75900
C970        C  0.17251298  0.66613595  0.60182170     0.78300
Cd971      Cd  0.22245100  0.74827125  0.54833801     1.37500
O972        O  0.29704348  0.79138932  0.58186820    -0.56700
O973        O  0.19635550  0.66001777  0.56540275    -0.55500
C974        C  0.17324226  0.82274271  0.49089259     0.78300
O975        O  0.16443670  0.71360720  0.61216960    -0.57900
O976        O  0.22970737  0.81967694  0.60195100    -0.56300
O977        O  0.27892565  0.67801120  0.53447603    -0.56300
O978        O  0.20005798  0.78910315  0.47273354    -0.55500
C979        C  0.79528389  0.62809011  0.65294339    -0.01400
C980        C  0.65503376  0.61811609  0.98953601    -0.01400
C981        C  0.79302440  0.87740479  0.98811680    -0.01400
C982        C  0.65395481  0.87331096  0.65560426    -0.01400
O983        O  0.74781447  0.96193531  0.50007021    -0.56700
C984        C  0.77656094  0.57987650  0.62611361     0.75900
O985        O  0.69211087  0.53897011  0.50070209    -0.57900
C986        C  0.77537583  0.92850114  0.51704647     0.75900
C987        C  0.67611165  0.91995951  0.62851393     0.78300
Cd988      Cd  0.72587474  0.00150505  0.57601620     1.37500
O989        O  0.74749872  0.54723914  0.64397719    -0.56700
O990        O  0.72020657  0.92474121  0.62545987    -0.55500
C991        C  0.66927540  0.57542165  0.52015578     0.78300
O992        O  0.65308885  0.95406210  0.60621448    -0.57900
O993        O  0.78735706  0.57124618  0.58390772    -0.56300
O994        O  0.78362431  0.93343303  0.56014687    -0.56300
O995        O  0.66522600  0.57169246  0.56407996    -0.55500
O996        O  0.78825187  0.68235643  0.58152281    -0.56700
C997        C  0.77625889  0.83337650  0.51517161     0.75900
O998        O  0.66232623  0.68399407  0.55973494    -0.57900
C999        C  0.77978756  0.67657090  0.62476912     0.75900
C1000       C  0.67506536  0.82670209  0.62852028     0.78300
Cd1001     Cd  0.72731581  0.75233015  0.57071281     1.37500
O1002       O  0.78804857  0.82355983  0.55680594    -0.56700
O1003       O  0.70320216  0.79470949  0.64640671    -0.55500
C1004       C  0.67297952  0.67255387  0.51799449     0.78300
O1005       O  0.66854823  0.82099686  0.58505838    -0.57900
O1006       O  0.74667620  0.80125354  0.49813519    -0.56300
O1007       O  0.75420506  0.71135189  0.64278592    -0.56300
O1008       O  0.70384029  0.70258135  0.49937679    -0.55500
C1009       C  0.67992677  0.82727402  0.78381122    -0.10800
C1010       C  0.70873151  0.86857170  0.80034925     0.11800
C1011       C  0.71622697  0.91328536  0.77143414    -0.02600
C1012       C  0.70010607  0.91205255  0.72546254    -0.05300
C1013       C  0.67013064  0.87150125  0.70802400    -0.16100
C1014       C  0.65633571  0.83071155  0.74063018     0.02800
C1015       C  0.72901492  0.86616248  0.84842409     0.12800
C1016       C  0.74232940  0.96278115  0.78728901     0.63400
H1017       H  0.70988597  0.94561098  0.70417075     0.12800
C1018       C  0.61420987  0.79391565  0.73324058     0.55500
H1019       H  0.67445618  0.79299072  0.80591887     0.08600
C1020       C  0.70062606  0.86739867  0.88927765    -0.05200
C1021       C  0.72265536  0.87217116  0.93289571    -0.05900
C1022       C  0.77178590  0.88000816  0.93765797    -0.15500
C1023       C  0.79776783  0.88963432  0.89553074    -0.01100
C1024       C  0.77767414  0.87415509  0.85292070    -0.08700
C1025       C  0.64731644  0.86546639  0.88729164     0.65600
H1026       H  0.70116048  0.87034922  0.96417656     0.11100
C1027       C  0.84069496  0.92620999  0.89213992     0.64000
H1028       H  0.79917473  0.87576124  0.82160361     0.08400
F1029       F  0.57407715  0.82270320  0.72866159    -0.19000
F1030       F  0.60565790  0.76163618  0.77120159    -0.15300
F1031       F  0.62073273  0.76251763  0.69463483    -0.18800
F1032       F  0.78952397  0.95755534  0.77789639    -0.22100
F1033       F  0.73521088  0.97267520  0.83419550    -0.23600
F1034       F  0.72694750  0.00629946  0.76340598    -0.17600
F1035       F  0.88103802  0.89739274  0.88830631    -0.20100
F1036       F  0.84319532  0.96019776  0.92954264    -0.21300
F1037       F  0.83833225  0.95803292  0.85305455    -0.18400
F1038       F  0.62708230  0.87665618  0.93009780    -0.18500
F1039       F  0.63176983  0.81569179  0.87430639    -0.22400
F1040       F  0.63175893  0.90235148  0.85562733    -0.24000
C1041       C  0.74349060  0.61870971  0.88151681    -0.10800
C1042       C  0.71353030  0.63050472  0.84467141     0.11800
C1043       C  0.66466841  0.63138984  0.85508043    -0.02600
C1044       C  0.64856034  0.61633377  0.89968525    -0.05300
C1045       C  0.67814167  0.61619207  0.93897624    -0.16100
C1046       C  0.72806963  0.61601862  0.92855811     0.02800
C1047       C  0.73397530  0.63609242  0.79576642     0.12800
C1048       C  0.62780126  0.65190627  0.82226622     0.63400
H1049       H  0.61121989  0.61028736  0.90357223     0.12800
C1050       C  0.76861362  0.61269460  0.96283660     0.55500
H1051       H  0.78046650  0.61427986  0.87372505     0.08600
C1052       C  0.77739788  0.66226781  0.78454829    -0.05200
C1053       C  0.79754636  0.65491191  0.73976412    -0.05900
C1054       C  0.77181847  0.63235642  0.70247636    -0.15500
C1055       C  0.72325426  0.62089151  0.71224941    -0.01100
C1056       C  0.70929899  0.61331377  0.75870569    -0.08700
C1057       C  0.80203415  0.70152620  0.81637126     0.65600
H1058       H  0.83220928  0.67122419  0.73328948     0.11100
C1059       C  0.68267885  0.62155671  0.67800818     0.64000
H1060       H  0.67631843  0.59317290  0.76538332     0.08400
F1061       F  0.79957922  0.65462760  0.95472192    -0.19000
F1062       F  0.79212242  0.56621053  0.95511192    -0.15300
F1063       F  0.75632336  0.61423030  0.00913450    -0.18800
F1064       F  0.60206736  0.61008283  0.80401601    -0.22100
F1065       F  0.64760083  0.68164866  0.78671558    -0.23600
F1066       F  0.59744732  0.68438349  0.84612403    -0.17600
F1067       F  0.65893174  0.57377459  0.67896391    -0.20100
F1068       F  0.69528081  0.63217345  0.63275188    -0.21300
F1069       F  0.65185011  0.66014697  0.69148796    -0.18400
F1070       F  0.81506100  0.74628174  0.79109143    -0.18500
F1071       F  0.84193847  0.67930557  0.83421838    -0.22400
F1072       F  0.77352504  0.71785218  0.85254612    -0.24000
C1073       C  0.42728659  0.88683564  0.59501820    -0.10800
C1074       C  0.44847062  0.87655465  0.63765167     0.11800
C1075       C  0.42050951  0.86127998  0.67631196    -0.02600
C1076       C  0.37177987  0.85815925  0.67096518    -0.05300
C1077       C  0.34894847  0.87123374  0.62877993    -0.16100
C1078       C  0.37853890  0.88110971  0.58863069     0.02800
C1079       C  0.50040722  0.87691800  0.63974126     0.12800
C1080       C  0.44197004  0.84822087  0.72327314     0.63400
H1081       H  0.35147103  0.84495093  0.70078456     0.12800
C1082       C  0.36381208  0.88455843  0.53781687     0.55500
H1083       H  0.44971473  0.89718301  0.56545614     0.08600
C1084       C  0.52638631  0.83425452  0.62298514    -0.05200
C1085       C  0.57497682  0.83503512  0.62844971    -0.05900
C1086       C  0.59944984  0.87587955  0.65207858    -0.15500
C1087       C  0.57178500  0.91731243  0.67194074    -0.01100
C1088       C  0.52338718  0.91834928  0.66254716    -0.08700
C1089       C  0.50295423  0.78775221  0.59904982     0.65600
H1090       H  0.59328162  0.80131868  0.61571706     0.11100
C1091       C  0.59003370  0.95652255  0.70785643     0.64000
H1092       H  0.50201665  0.94986591  0.67591917     0.08400
F1093       F  0.38896693  0.84853588  0.51200129    -0.19000
F1094       F  0.37497903  0.93457677  0.52124081    -0.15300
F1095       F  0.31706772  0.87408545  0.52972029    -0.18800
F1096       F  0.46412455  0.89263928  0.74120577    -0.22100
F1097       F  0.47421230  0.80860873  0.71816385    -0.23600
F1098       F  0.40854480  0.83114026  0.75559069    -0.17600
F1099       F  0.55843353  0.99608074  0.71698226    -0.20100
F1100       F  0.63063006  0.98074039  0.69272961    -0.21300
F1101       F  0.59805447  0.93067515  0.74938868    -0.18400
F1102       F  0.53437940  0.74834198  0.58883289    -0.18500
F1103       F  0.48403428  0.80497608  0.55782578    -0.22400
F1104       F  0.46787781  0.76607036  0.62722269    -0.24000
C1105       C  0.02421287  0.92115018  0.95934709    -0.10800
C1106       C  0.00005238  0.88016062  0.98268953     0.11800
C1107       C  0.02665102  0.84129016  0.50398072    -0.02600
C1108       C  0.07345923  0.83572848  0.99194747    -0.05300
C1109       C  0.09938534  0.87702658  0.96953513    -0.16100
C1110       C  0.07365689  0.92251912  0.95499499     0.02800
C1111       C  0.94792062  0.88048788  0.98552519     0.12800
C1112       C  0.00523543  0.79883385  0.53514398     0.63400
H1113       H  0.08981710  0.80017864  0.50356277     0.12800
C1114       C  0.09632367  0.97430707  0.93805896     0.55500
H1115       H  0.00381093  0.95296655  0.94533853     0.08600
C1116       C  0.92504855  0.92389092  0.51228241    -0.05200
C1117       C  0.87588918  0.92209443  0.51106507    -0.05900
C1118       C  0.84780405  0.87535464  0.98880896    -0.15500
C1119       C  0.87385146  0.83337829  0.96794143    -0.01100
C1120       C  0.92297369  0.83944355  0.96378795    -0.08700
C1121       C  0.95011786  0.96563277  0.54159594     0.65600
H1122       H  0.85826874  0.95505056  0.52630822     0.11100
C1123       C  0.85229705  0.78036948  0.95280917     0.64000
H1124       H  0.94302376  0.81067290  0.94470305     0.08400
F1125       F  0.11188540  0.00237843  0.97626279    -0.19000
F1126       F  0.06463967  0.00528680  0.91472661    -0.15300
F1127       F  0.13332621  0.96672567  0.90781222    -0.18800
F1128       F  0.00239430  0.75198391  0.51052738    -0.22100
F1129       F  0.96121567  0.81106661  0.55181892    -0.23600
F1130       F  0.03388141  0.79212420  0.57331679    -0.17600
F1131       F  0.88412572  0.75020118  0.92840834    -0.20100
F1132       F  0.81428086  0.78629121  0.92426304    -0.21300
F1133       F  0.83867055  0.75172743  0.99189082    -0.18400
F1134       F  0.91895510  0.99558872  0.56709443    -0.18500
F1135       F  0.97627485  0.99973562  0.51353930    -0.22400
F1136       F  0.97946331  0.94128191  0.57276031    -0.24000
C1137       C  0.16357403  0.87482012  0.82818056    -0.10800
C1138       C  0.21212940  0.87816781  0.82090598     0.11800
C1139       C  0.24184922  0.87669117  0.86008249    -0.02600
C1140       C  0.22140751  0.87496066  0.90503418    -0.05300
C1141       C  0.17228170  0.87029683  0.91277072    -0.16100
C1142       C  0.14392940  0.86265728  0.87221812     0.02800
C1143       C  0.23097087  0.87723467  0.77200161     0.12800
C1144       C  0.29495893  0.87665886  0.85469348     0.63400
H1145       H  0.24419891  0.87604832  0.93491863     0.12800
C1146       C  0.09750464  0.83174233  0.87198156     0.55500
H1147       H  0.14083234  0.87675382  0.79828203     0.08600
C1148       C  0.22749506  0.83161929  0.74384059    -0.05200
C1149       C  0.25118124  0.83124659  0.70076298    -0.05900
C1150       C  0.27471280  0.87598496  0.68151225    -0.15500
C1151       C  0.27879294  0.92176166  0.71087929    -0.01100
C1152       C  0.25558092  0.92160592  0.75458833    -0.08700
C1153       C  0.19905186  0.78280482  0.75850490     0.65600
H1154       H  0.25174781  0.79455633  0.68215051     0.11100
C1155       C  0.30729535  0.97197204  0.70014149     0.64000
H1156       H  0.25758619  0.95668203  0.77612948     0.08400
F1157       F  0.09167395  0.80478867  0.83054045    -0.19000
F1158       F  0.06020811  0.86515254  0.87638641    -0.15300
F1159       F  0.09627269  0.79374677  0.90660800    -0.18800
F1160       F  0.31099409  0.92524787  0.83839564    -0.22100
F1161       F  0.30807738  0.83778143  0.82369603    -0.23600
F1162       F  0.31680621  0.86687920  0.89662374    -0.17600
F1163       F  0.27693158  0.01322812  0.69384969    -0.20100
F1164       F  0.33618167  0.96931010  0.66163546    -0.21300
F1165       F  0.33596007  0.98325443  0.73758702    -0.18400
F1166       F  0.19997416  0.74432742  0.72482110    -0.15700
F1167       F  0.15256217  0.79471212  0.76411631    -0.22400
F1168       F  0.21626780  0.76227382  0.79948697    -0.24000
C1169       C  0.41962461  0.57434538  0.95135952    -0.10800
C1170       C  0.44546807  0.61460920  0.97367742     0.11800
C1171       C  0.42023927  0.65690072  0.99312604    -0.02600
C1172       C  0.37178263  0.66004721  0.98588011    -0.05300
C1173       C  0.34435486  0.61825238  0.96711391    -0.16100
C1174       C  0.36963820  0.57288578  0.95067617     0.02800
C1175       C  0.49853362  0.61226405  0.97689507     0.12800
C1176       C  0.43830537  0.71137000  0.51572242     0.63400
H1177       H  0.35186601  0.70221202  0.48659238     0.12800
C1178       C  0.34579886  0.52124581  0.93490094     0.55500
H1179       H  0.43915348  0.54279590  0.93568424     0.08600
C1180       C  0.51928770  0.58403973  0.51098258    -0.05200
C1181       C  0.56871545  0.58634060  0.51435815    -0.05900
C1182       C  0.59932183  0.61969394  0.98856261    -0.15500
C1183       C  0.57366895  0.66237706  0.96831786    -0.01100
C1184       C  0.52546548  0.65446130  0.95833375    -0.08700
C1185       C  0.49171412  0.54319194  0.53973694     0.65600
H1186       H  0.58504856  0.55457628  0.53279804     0.11100
C1187       C  0.59462913  0.71769481  0.95952487     0.64000
H1188       H  0.50727332  0.68341577  0.93793582     0.08400
F1189       F  0.32449165  0.49626282  0.97246638    -0.19000
F1190       F  0.37776989  0.48651027  0.91632229    -0.15300
F1191       F  0.31256858  0.52922148  0.90134316    -0.18800
F1192       F  0.47048497  0.73249114  0.99707088    -0.22100
F1193       F  0.47097156  0.69366183  0.54692266    -0.23600
F1194       F  0.40454215  0.73770906  0.54116008    -0.17600
F1195       F  0.56382063  0.74980576  0.93622107    -0.20100
F1196       F  0.63521926  0.71670085  0.93314241    -0.21300
F1197       F  0.60405485  0.74149580  0.00174935    -0.18400
F1198       F  0.51929835  0.52029259  0.57340144    -0.18500
F1199       F  0.47471389  0.50342102  0.51133969    -0.22400
F1200       F  0.45466764  0.56681947  0.56244071    -0.24000
C1201       C  0.92377089  0.57764486  0.66754042    -0.10800
C1202       C  0.95009237  0.62302097  0.65616197     0.11800
C1203       C  0.92668181  0.67042569  0.64695649    -0.02600
C1204       C  0.87747682  0.67029307  0.64706072    -0.05300
C1205       C  0.84986252  0.62427908  0.65599958    -0.16100
C1206       C  0.87424842  0.57738001  0.66949820     0.02800
C1207       C  0.00209110  0.61940643  0.65115313     0.12800
C1208       C  0.95375574  0.72055414  0.63439620     0.63400
H1209       H  0.86047460  0.70715920  0.64019424     0.12800
C1210       C  0.85013935  0.52560588  0.68414152     0.55500
H1211       H  0.94262354  0.54168850  0.67415490     0.08600
C1212       C  0.03256590  0.62634734  0.68900394    -0.05200
C1213       C  0.08121810  0.62914401  0.68033998    -0.05900
C1214       C  0.10161209  0.62126649  0.63559890    -0.15500
C1215       C  0.06954571  0.61895726  0.59685286    -0.01100
C1216       C  0.02088814  0.61427205  0.60630522    -0.08700
C1217       C  0.01373595  0.62978126  0.73864052     0.65600
H1218       H  0.10328880  0.63926600  0.70930264     0.11100
C1219       C  0.08344289  0.62918849  0.54576971     0.64000
H1220       H  0.99610122  0.61051596  0.57810439     0.08400
F1221       F  0.81191822  0.53449475  0.71255504    -0.19000
F1222       F  0.88001769  0.49407697  0.70924489    -0.15300
F1223       F  0.83640179  0.49759387  0.64514167    -0.18800
F1224       F  0.98541971  0.73353962  0.66882009    -0.22100
F1225       F  0.92469143  0.76309034  0.62831949    -0.23600
F1226       F  0.97761970  0.71212789  0.59331425    -0.17600
F1227       F  0.04557352  0.62393358  0.51614458    -0.20100
F1228       F  0.11635958  0.59467807  0.52999990    -0.21300
F1229       F  0.10051506  0.68035411  0.54059313    -0.18400
F1230       F  0.04936009  0.63607512  0.77070807    -0.18500
F1231       F  0.98907642  0.58376748  0.74969251    -0.22400
F1232       F  0.98416445  0.67202658  0.74309514    -0.24000
C1233       C  0.20867750  0.61890769  0.85415011    -0.10800
C1234       C  0.24188814  0.61362485  0.81849231     0.11800
C1235       C  0.29008192  0.62031139  0.82986612    -0.02600
C1236       C  0.30231615  0.63072784  0.87636538    -0.05300
C1237       C  0.26984121  0.62636103  0.91390554    -0.16100
C1238       C  0.22083390  0.62403939  0.90138078     0.02800
C1239       C  0.22385814  0.60913799  0.76971823     0.12800
C1240       C  0.33093316  0.61569974  0.79567497     0.63400
H1241       H  0.33898860  0.63858416  0.88308559     0.12800
C1242       C  0.17807719  0.62758427  0.93351060     0.55500
H1243       H  0.17190578  0.61835282  0.84480250     0.08600
C1244       C  0.18958650  0.57129538  0.75514566    -0.05200
C1245       C  0.16963375  0.57690335  0.71068060    -0.05900
C1246       C  0.18390361  0.61703327  0.67860211    -0.15500
C1247       C  0.22618738  0.64624215  0.69064419    -0.01100
C1248       C  0.23945323  0.64715823  0.73763531    -0.08700
C1249       C  0.17176243  0.52531431  0.78502347     0.65600
H1250       H  0.14192885  0.54937392  0.70069143     0.11100
C1251       C  0.26301131  0.66972709  0.65665779     0.64000
H1252       H  0.26514395  0.67627888  0.74914046     0.08400
F1253       F  0.14941647  0.58355104  0.92707530    -0.19000
F1254       F  0.15325638  0.67202656  0.92175657    -0.15300
F1255       F  0.18760977  0.63049989  0.98002873    -0.18800
F1256       F  0.35258448  0.66474858  0.79007963    -0.22100
F1257       F  0.31817491  0.59705767  0.75252491    -0.23600
F1258       F  0.36316474  0.58099697  0.81340741    -0.17600
F1259       F  0.24827488  0.71521801  0.63609267    -0.20100
F1260       F  0.27468360  0.63360335  0.62304378    -0.21300
F1261       F  0.30457933  0.68280612  0.67888783    -0.18400
F1262       F  0.16837646  0.48012745  0.75814239    -0.18500
F1263       F  0.12759338  0.53633008  0.80215848    -0.22400
F1264       F  0.20093376  0.51468682  0.82191912    -0.24000
loop_ 
_geom_bond_atom_site_label_1 
_geom_bond_atom_site_label_2 
_geom_bond_distance 
_geom_bond_site_symmetry_2 
_ccdc_geom_bond_type 
C1            C8   1.534       .  S
C1           C22   1.519       .  S
C1          C266   1.580       .  S
C1          C298   1.580       .  S
C2          C225   1.588       .  S
C2          C289   1.572       .  S
C2          C329   1.531       .  S
C2          C337   1.549       .  S
C3          C161   1.562       .  S
C3          C193   1.568       .  S
C3          C322   1.526       .  S
C3          C342   1.547       .  S
C4            C9   1.531       .  S
C4           C19   1.534       .  S
C4          C129   1.559       .  S
C4          C202   1.577       .  S
O5            C8   1.267       .  A
O5         Cd642   2.589   1_545  S
C6          C319   1.542       .  S
C6           O15   1.265       .  A
C6           O11   1.269   1_556  A
O7           C13   1.268   1_554  A
O7         Cd642   2.461   1_545  S
C8           O16   1.256       .  A
C9           O14   1.269       .  A
C9           O12   1.263       .  A
Cd10         O15   2.452   1_554  S
Cd10         O11   2.500       .  S
Cd10         O14   2.526       .  S
Cd10         O12   2.389       .  S
Cd10        O637   2.483       .  S
Cd10        O639   2.489       .  S
Cd10        O649   2.481   1_554  S
Cd10        O648   2.437       .  S
C13         C318   1.529       .  S
C13          O17   1.270       .  A
O16        Cd642   2.348   1_545  S
O17        Cd642   2.487   1_546  S
O18          C21   1.274       .  A
O18         Cd23   2.496   1_556  S
C19          O28   1.258       .  A
C19          O24   1.272       .  A
O20          C26   1.265   1_554  A
O20         Cd23   2.446       .  S
C21         C318   1.547       .  S
C21          O29   1.273   1_556  A
C22          O27   1.265       .  A
C22          O25   1.253       .  A
Cd23         O30   2.490   1_554  S
Cd23         O29   2.453       .  S
Cd23         O28   2.369       .  S
Cd23         O24   2.568       .  S
Cd23         O27   2.601       .  S
Cd23         O25   2.404       .  S
C26         C319   1.539       .  S
C26          O30   1.267       .  A
C31          C36   1.538       .  S
C31          C51   1.542       .  S
C31         C106   1.571       .  S
C31         C257   1.571       .  S
C32          C97   1.586       .  S
C32         C234   1.587       .  S
C32         C359   1.538       .  S
C32         C372   1.544       .  S
C33          C74   1.579       .  S
C33         C170   1.566       .  S
C33         C354   1.536       .  S
C33         C365   1.538       .  S
C34          C39   1.540       .  S
C34          C52   1.546       .  S
C34          C65   1.579       .  S
C34         C138   1.563       .  S
O35          C38   1.268       .  A
O35         Cd40   2.483       .  S
C36          O45   1.267       .  A
C36          O41   1.263       .  A
O37          C43   1.268       .  A
O37        Cd672   2.477   1_545  S
C38         C349   1.542   1_554  S
C38          O46   1.267       .  A
C39          O44   1.271       .  A
C39          O42   1.263       .  A
Cd40         O46   2.484       .  S
Cd40         O44   2.556       .  S
Cd40         O42   2.415       .  S
Cd40        O669   2.501   1_554  S
Cd40        O679   2.498       .  S
Cd40        O677   2.545       .  S
Cd40        O673   2.488       .  S
O41        Cd672   2.480   1_545  S
C43         C348   1.539   1_554  S
C43          O47   1.268       .  A
O45        Cd672   2.518   1_545  S
O47        Cd672   2.478   1_545  S
O48          C51   1.268       .  A
O48         Cd53   2.516       .  S
C49         C349   1.538   1_554  S
C49          O58   1.262       .  A
C49          O54   1.269       .  A
O50          C56   1.269       .  A
O50         Cd53   2.533       .  S
C51          O59   1.265       .  A
C52          O57   1.271       .  A
C52          O55   1.264       .  A
Cd53         O60   2.489       .  S
Cd53         O59   2.460       .  S
Cd53         O58   2.461       .  S
Cd53         O54   2.512       .  S
Cd53         O57   2.489       .  S
Cd53         O55   2.514       .  S
C56         C348   1.540   1_554  S
C56          O60   1.264       .  A
C61          C62   1.405       .  A
C61          C66   1.422       .  A
C61          H71   1.079       .  S
C62          C63   1.412       .  A
C62          C67   1.507       .  S
C63          C68   1.515       .  S
C63          C64   1.399       .  A
C64          C65   1.416       .  A
C64          H69   1.075       .  S
C65          C66   1.440       .  A
C66          C70   1.525       .  S
C67          C72   1.419       .  A
C67          C76   1.406       .  A
C68          F84   1.378       .  S
C68          F85   1.383       .  S
C68          F86   1.377       .  S
C70          F81   1.378       .  S
C70          F82   1.377       .  S
C70          F83   1.379       .  S
C72          C77   1.522       .  S
C72          C73   1.412       .  A
C73          C74   1.421       .  A
C73          H78   1.082       .  S
C74          C75   1.430       .  A
C75          C79   1.523       .  S
C75          C76   1.410       .  A
C76          H80   1.083       .  S
C77          F90   1.385       .  S
C77          F91   1.380       .  S
C77          F92   1.383       .  S
C79          F87   1.378       .  S
C79          F88   1.380       .  S
C79          F89   1.383       .  S
C93          C94   1.400       .  A
C93          C98   1.414       .  A
C93         H103   1.081       .  S
C94          C95   1.423       .  A
C94          C99   1.519       .  S
C95         C100   1.517       .  S
C95          C96   1.404       .  A
C96          C97   1.415       .  A
C96         H101   1.075       .  S
C97          C98   1.452       .  A
C98         C102   1.529       .  S
C99         C104   1.426       .  A
C99         C108   1.398       .  A
C100        F116   1.383       .  S
C100        F117   1.378       .  S
C100        F118   1.384       .  S
C102        F113   1.384       .  S
C102        F114   1.384       .  S
C102        F115   1.370       .  S
C104        C109   1.520       .  S
C104        C105   1.417       .  A
C105        C106   1.420       .  A
C105        H110   1.082       .  S
C106        C107   1.436       .  A
C107        C111   1.526       .  S
C107        C108   1.400       .  A
C108        H112   1.080       .  S
C109        F122   1.385       .  S
C109        F123   1.383       .  S
C109        F124   1.383       .  S
C111        F119   1.373       .  S
C111        F120   1.369       .  S
C111        F121   1.383       .  S
C125        C126   1.394       .  A
C125        C130   1.406       .  A
C125        H135   1.086       .  S
C126        C127   1.406       .  A
C126        C131   1.476       .  S
C127        C132   1.522       .  S
C127        C128   1.400       .  A
C128        C129   1.423       .  A
C128        H133   1.077       .  S
C129        C130   1.438       .  A
C130        C134   1.521       .  S
C131        C136   1.408       .  A
C131        C140   1.392       .  A
C132        F148   1.382       .  S
C132        F149   1.383       .  S
C132        F150   1.385       .  S
C134        F145   1.385       .  S
C134        F146   1.381       .  S
C134        F147   1.376       .  S
C136        C141   1.514       .  S
C136        C137   1.396       .  A
C137        C138   1.415       .  A
C137        H142   1.077       .  S
C138        C139   1.444       .  A
C139        C143   1.520       .  S
C139        C140   1.409       .  A
C140        H144   1.084       .  S
C141        F154   1.384       .  S
C141        F155   1.383       .  S
C141        F156   1.379       .  S
C143        F151   1.386       .  S
C143        F152   1.363       .  S
C143        F153   1.382       .  S
C157        C158   1.399   1_455  A
C157        C162   1.414       .  A
C157        H167   1.079       .  S
C158        C475   1.411   1_655  A
C158        C163   1.493       .  S
C159        C164   1.511   1_556  S
C159        C474   1.407       .  A
C159        C476   1.394       .  A
C160        C161   1.413       .  A
C160        C475   1.394       .  A
C160        H481   1.079       .  S
C161        C162   1.444       .  A
C162        C166   1.531       .  S
C163        C172   1.402       .  A
C163        C484   1.412       .  A
C164        F180   1.383   1_454  S
C164        F181   1.381   1_455  S
C164        F182   1.386       .  S
H165        C476   1.078       .  S
C166        F177   1.380       .  S
C166        F178   1.385       .  S
C166        F179   1.376       .  S
C168        C173   1.522       .  S
C168        C169   1.406       .  A
C168        C479   1.411   1_554  A
C169        C486   1.421   1_554  A
C169        H174   1.075       .  S
C170        C171   1.438       .  A
C170        C485   1.424       .  A
C171        C175   1.530       .  S
C171        C172   1.410       .  A
C172        H176   1.082       .  S
C173        F186   1.385       .  S
C173        F187   1.381       .  S
C173        F188   1.383       .  S
C175        F183   1.385       .  S
C175        F184   1.377       .  S
C175        F185   1.381       .  S
C189        C190   1.400       .  A
C189        C194   1.407       .  A
C189        H199   1.082       .  S
C190        C191   1.417       .  A
C190        C195   1.496       .  S
C191        C196   1.521       .  S
C191        C192   1.409       .  A
C192        C193   1.417       .  A
C192        H197   1.082       .  S
C193        C194   1.432       .  A
C194        C198   1.523       .  S
C195        C200   1.411       .  A
C195        C204   1.400       .  A
C196        F212   1.381       .  S
C196        F213   1.383       .  S
C196        F214   1.385       .  S
C198        F209   1.383       .  S
C198        F210   1.378       .  S
C198        F211   1.381       .  S
C200        C205   1.520       .  S
C200        C201   1.402       .  A
C201        C202   1.415       .  A
C201        H206   1.067       .  S
C202        C203   1.438       .  A
C203        C207   1.521       .  S
C203        C204   1.414       .  A
C204        H208   1.084       .  S
C205        F218   1.375       .  S
C205        F219   1.375       .  S
C205        F220   1.383       .  S
C207        F215   1.383       .  S
C207        F216   1.373       .  S
C207        F217   1.383       .  S
C221        C222   1.405       .  A
C221        C226   1.426       .  A
C221        H231   1.081       .  S
C222        C223   1.413       .  A
C222        C227   1.516       .  S
C223        C544   1.513       .  S
C223        C224   1.402       .  A
C224        C225   1.416       .  A
C224        H545   1.077       .  S
C225        C226   1.450       .  A
C226        C230   1.535       .  S
C227        C236   1.404       .  A
C227        C548   1.418       .  A
C228        C539   1.513       .  S
C228        F245   1.382       .  S
C228        F246   1.385       .  S
C228        F560   1.382       .  S
H229        C540   1.078   1_554  S
C230        F241   1.378   1_545  S
C230        F242   1.385   1_545  S
C230        F243   1.375       .  S
C232        C237   1.523       .  S
C232        C233   1.411       .  A
C232        C543   1.414   1_554  A
C233        C550   1.425   1_554  A
C233        H238   1.076       .  S
C234        C235   1.439       .  A
C234        C549   1.426       .  A
C235        C239   1.530       .  S
C235        C236   1.417       .  A
C236        H240   1.080       .  S
C237        F250   1.385   1_545  S
C237        F251   1.380   1_544  S
C237        F252   1.383       .  S
C239        F247   1.385       .  S
C239        F248   1.377       .  S
C239        F249   1.381       .  S
F244        C544   1.380       .  S
C253        C254   1.396       .  A
C253        C258   1.416       .  A
C253        H263   1.083       .  S
C254        C255   1.411       .  A
C254        C259   1.498       .  S
C255        C260   1.511       .  S
C255        C256   1.403       .  A
C256        C257   1.414       .  A
C256        H261   1.078       .  S
C257        C258   1.442       .  A
C258        C262   1.522       .  S
C259        C264   1.409   1_655  A
C259        C268   1.397   1_655  A
C260        F276   1.382       .  S
C260        F277   1.385       .  S
C260        F278   1.376       .  S
C262        F273   1.375       .  S
C262        F274   1.385   1_545  S
C262        F275   1.382   1_545  S
C264        C269   1.521       .  S
C264        C265   1.411       .  A
C265        C266   1.422       .  A
C265        H270   1.077       .  S
C266        C267   1.446       .  A
C267        C271   1.534       .  S
C267        C268   1.415       .  A
C268        H272   1.083   1_455  S
C269        F282   1.385       .  S
C269        F283   1.382   1_455  S
C269        F284   1.382   1_455  S
C271        F279   1.385       .  S
C271        F280   1.371       .  S
C271        F281   1.380       .  S
C285        C286   1.393       .  A
C285        C290   1.406       .  A
C285        H295   1.085       .  S
C286        C287   1.418       .  A
C286        C291   1.495       .  S
C287        C292   1.521       .  S
C287        C288   1.406       .  A
C288        C289   1.416       .  A
C288        H293   1.079       .  S
C289        C290   1.449       .  A
C290        C294   1.527       .  S
C291        C296   1.417       .  A
C291        C300   1.391       .  A
C292        F308   1.383       .  S
C292        F309   1.380       .  S
C292        F310   1.384       .  S
C294        F305   1.383       .  S
C294        F306   1.384       .  S
C294        F307   1.366       .  S
C296        C301   1.519       .  S
C296        C297   1.411       .  A
C297        C298   1.420       .  A
C297        H302   1.084       .  S
C298        C299   1.449       .  A
C299        C303   1.534       .  S
C299        C300   1.404       .  A
C300        H304   1.083       .  S
C301        F314   1.384   1_545  S
C301        F315   1.382       .  S
C301        F316   1.383       .  S
C303        F311   1.369       .  S
C303        F312   1.375       .  S
C303        F313   1.387       .  S
C317        C324   1.536       .  S
C317        C338   1.529       .  S
C317        C582   1.582       .  S
C317        C614   1.581       .  S
C318        C541   1.582       .  S
C318        C605   1.573       .  S
C319        C477   1.561       .  S
C319        C509   1.567       .  S
C320        C325   1.527       .  S
C320        C335   1.537       .  S
C320        C445   1.568       .  S
C320        C518   1.569       .  S
O321        C324   1.268       .  A
O321       Cd958   2.587   1_545  S
C322        O331   1.268       .  A
C322        O327   1.269       .  A
O323        C329   1.265       .  A
O323       Cd958   2.470   1_545  S
C324        O332   1.259       .  A
C325        O330   1.267       .  A
C325        O328   1.261       .  A
Cd326       O953   2.586       .  S
Cd326       O955   2.461       .  S
Cd326       O965   2.505       .  S
Cd326       O964   2.312       .  S
Cd326       O331   2.473       .  S
Cd326       O327   2.425       .  S
Cd326       O330   2.525       .  S
Cd326       O328   2.395       .  S
C329        O333   1.269       .  A
O332       Cd958   2.350   1_545  S
O333       Cd958   2.513   1_545  S
O334        C337   1.273       .  A
O334       Cd339   2.498       .  S
C335        O344   1.259       .  A
C335        O340   1.269       .  A
O336        C342   1.265       .  A
O336       Cd339   2.468       .  S
C337        O345   1.271       .  A
C338        O343   1.266       .  A
C338        O341   1.254       .  A
Cd339       O346   2.530       .  S
Cd339       O345   2.465       .  S
Cd339       O344   2.412       .  S
Cd339       O340   2.578       .  S
Cd339       O343   2.621       .  S
Cd339       O341   2.416       .  S
C342        O346   1.266       .  A
C347        C352   1.542       .  S
C347        C367   1.542       .  S
C347        C422   1.574       .  S
C347        C573   1.571       .  S
C348        C413   1.585       .  S
C348        C550   1.583       .  S
C349        C390   1.576       .  S
C349        C486   1.564       .  S
C350        C355   1.534       .  S
C350        C368   1.542       .  S
C350        C381   1.581       .  S
C350        C454   1.558       .  S
O351        C354   1.267       .  A
O351       Cd356   2.479       .  S
C352        O361   1.267       .  A
C352        O357   1.262       .  A
O353        C359   1.268       .  A
O353       Cd988   2.463       .  S
C354        O362   1.267       .  A
C355        O360   1.272       .  A
C355        O358   1.262       .  A
Cd356       O985   2.476       .  S
Cd356       O995   2.492       .  S
Cd356       O362   2.451       .  S
Cd356       O993   2.523       .  S
Cd356       O989   2.437       .  S
Cd356       O360   2.516       .  S
Cd356       O358   2.415       .  S
O357       Cd988   2.464       .  S
C359        O363   1.267       .  A
O361       Cd988   2.539       .  S
O363       Cd988   2.486       .  S
O364        C367   1.270       .  A
O364       Cd369   2.529       .  S
C365        O374   1.262       .  A
C365        O370   1.270       .  A
O366        C372   1.269       .  A
O366       Cd369   2.555       .  S
C367        O375   1.263       .  A
C368        O373   1.272       .  A
C368        O371   1.262       .  A
Cd369       O376   2.490       .  S
Cd369       O375   2.437       .  S
Cd369       O374   2.460       .  S
Cd369       O370   2.512       .  S
Cd369       O373   2.470       .  S
Cd369       O371   2.514       .  S
C372        O376   1.264       .  A
C377        C378   1.398       .  A
C377        C382   1.417       .  A
C377        H387   1.080       .  S
C378        C379   1.412       .  A
C378        C383   1.502       .  S
C379        C384   1.517       .  S
C379        C380   1.407       .  A
C380        C381   1.420       .  A
C380        H385   1.076       .  S
C381        C382   1.438       .  A
C382        C386   1.520       .  S
C383        C388   1.419       .  A
C383        C392   1.403       .  A
C384        F400   1.380       .  S
C384        F401   1.384       .  S
C384        F402   1.375       .  S
C386        F397   1.378       .  S
C386        F398   1.377       .  S
C386        F399   1.378       .  S
C388        C393   1.522       .  S
C388        C389   1.409       .  A
C389        C390   1.418       .  A
C389        H394   1.082       .  S
C390        C391   1.432       .  A
C391        C395   1.522       .  S
C391        C392   1.408       .  A
C392        H396   1.083       .  S
C393        F406   1.385       .  S
C393        F407   1.381       .  S
C393        F408   1.383       .  S
C395        F403   1.378       .  S
C395        F404   1.380       .  S
C395        F405   1.383       .  S
C409        C410   1.403       .  A
C409        C414   1.414       .  A
C409        H419   1.086       .  S
C410        C411   1.426       .  A
C410        C415   1.516       .  S
C411        C416   1.520       .  S
C411        C412   1.406       .  A
C412        C413   1.415       .  A
C412        H417   1.078       .  S
C413        C414   1.448       .  A
C414        C418   1.529       .  S
C415        C420   1.429       .  A
C415        C424   1.399       .  A
C416        F432   1.383       .  S
C416        F433   1.371       .  S
C416        F434   1.385       .  S
C418        F429   1.384       .  S
C418        F430   1.384       .  S
C418        F431   1.371   1_556  S
C420        C425   1.519       .  S
C420        C421   1.418       .  A
C421        C422   1.415       .  A
C421        H426   1.087       .  S
C422        C423   1.436       .  A
C423        C427   1.524       .  S
C423        C424   1.401       .  A
C424        H428   1.087       .  S
C425        F438   1.384       .  S
C425        F439   1.382       .  S
C425        F440   1.382       .  S
C427        F435   1.370       .  S
C427        F436   1.368       .  S
C427        F437   1.382       .  S
C441        C442   1.398       .  A
C441        C446   1.412       .  A
C441        H451   1.085       .  S
C442        C443   1.405       .  A
C442        C447   1.482       .  S
C443        C448   1.528       .  S
C443        C444   1.396       .  A
C444        C445   1.426       .  A
C444        H449   1.072       .  S
C445        C446   1.439       .  A
C446        C450   1.525       .  S
C447        C452   1.407       .  A
C447        C456   1.395       .  A
C448        F464   1.381       .  S
C448        F465   1.382       .  S
C448        F466   1.385       .  S
C450        F461   1.384       .  S
C450        F462   1.382       .  S
C450        F463   1.375       .  S
C452        C457   1.513       .  S
C452        C453   1.395       .  A
C453        C454   1.415       .  A
C453        H458   1.072       .  S
C454        C455   1.438       .  A
C455        C459   1.523       .  S
C455        C456   1.409       .  A
C456        H460   1.082       .  S
C457        F470   1.385       .  S
C457        F471   1.377       .  S
C457        F472   1.383       .  S
C459        F467   1.385       .  S
C459        F468   1.368       .  S
C459        F469   1.382       .  S
C473        C474   1.400       .  A
C473        C478   1.414       .  A
C473        H483   1.084       .  S
C474        C479   1.493   1_455  S
C475        C480   1.512       .  S
C476        C477   1.415       .  A
C477        C478   1.441       .  A
C478        C482   1.523       .  S
C479        C488   1.401       .  A
C480        F496   1.383   1_455  S
C480        F497   1.381   1_455  S
C480        F498   1.386       .  S
C482        F493   1.383       .  S
C482        F494   1.384       .  S
C482        F495   1.374       .  S
C484        C489   1.526       .  S
C484        C485   1.404       .  A
C485        H490   1.076       .  S
C486        C487   1.440       .  A
C487        C491   1.531       .  S
C487        C488   1.412       .  A
C488        H492   1.081       .  S
C489        F502   1.386       .  S
C489        F503   1.381       .  S
C489        F504   1.383       .  S
C491        F499   1.385       .  S
C491        F500   1.377       .  S
C491        F501   1.381       .  S
C505        C506   1.400       .  A
C505        C510   1.407       .  A
C505        H515   1.085       .  S
C506        C507   1.410       .  A
C506        C511   1.481       .  S
C507        C512   1.520       .  S
C507        C508   1.404       .  A
C508        C509   1.418       .  A
C508        H513   1.081       .  S
C509        C510   1.432       .  A
C510        C514   1.524       .  S
C511        C516   1.406       .  A
C511        C520   1.395       .  A
C512        F528   1.381       .  S
C512        F529   1.383       .  S
C512        F530   1.385       .  S
C514        F525   1.386       .  S
C514        F526   1.379       .  S
C514        F527   1.381       .  S
C516        C521   1.513       .  S
C516        C517   1.401       .  A
C517        C518   1.413       .  A
C517        H522   1.076       .  S
C518        C519   1.438       .  A
C519        C523   1.521       .  S
C519        C520   1.409       .  A
C520        H524   1.081       .  S
C521        F534   1.382       .  S
C521        F535   1.381       .  S
C521        F536   1.380       .  S
C523        F531   1.383       .  S
C523        F532   1.376       .  S
C523        F533   1.382       .  S
C537        C538   1.405       .  A
C537        C542   1.423       .  A
C537        H547   1.080       .  S
C538        C539   1.410   1_556  A
C538        C543   1.505       .  S
C539        C540   1.398   1_554  A
C540        C541   1.416       .  A
C541        C542   1.449       .  A
C542        C546   1.535       .  S
C543        C552   1.404       .  A
C544        F561   1.382       .  S
C544        F562   1.386       .  S
C546        F557   1.379   1_545  S
C546        F558   1.385   1_545  S
C546        F559   1.375       .  S
C548        C553   1.524       .  S
C548        C549   1.417       .  A
C549        H554   1.077       .  S
C550        C551   1.441       .  A
C551        C555   1.530       .  S
C551        C552   1.415       .  A
C552        H556   1.082       .  S
C553        F566   1.385       .  S
C553        F567   1.380   1_545  S
C553        F568   1.383       .  S
C555        F563   1.385       .  S
C555        F564   1.378       .  S
C555        F565   1.381   1_556  S
C569        C570   1.396       .  A
C569        C574   1.415       .  A
C569        H579   1.084       .  S
C570        C571   1.412       .  A
C570        C575   1.499   1_655  S
C571        C576   1.513       .  S
C571        C572   1.408       .  A
C572        C573   1.416       .  A
C572        H577   1.079       .  S
C573        C574   1.441       .  A
C574        C578   1.519       .  S
C575        C580   1.409       .  A
C575        C584   1.399       .  A
C576        F592   1.382       .  S
C576        F593   1.384       .  S
C576        F594   1.378       .  S
C578        F589   1.375       .  S
C578        F590   1.385       .  S
C578        F591   1.382   1_545  S
C580        C585   1.522       .  S
C580        C581   1.409       .  A
C581        C582   1.423       .  A
C581        H586   1.077       .  S
C582        C583   1.445       .  A
C583        C587   1.532       .  S
C583        C584   1.417       .  A
C584        H588   1.083   1_455  S
C585        F598   1.385       .  S
C585        F599   1.382   1_455  S
C585        F600   1.382   1_455  S
C587        F595   1.385       .  S
C587        F596   1.371       .  S
C587        F597   1.382       .  S
C601        C602   1.396       .  A
C601        C606   1.408       .  A
C601        H611   1.085       .  S
C602        C603   1.423       .  A
C602        C607   1.500       .  S
C603        C608   1.521       .  S
C603        C604   1.405       .  A
C604        C605   1.413       .  A
C604        H609   1.080       .  S
C605        C606   1.447       .  A
C606        C610   1.524       .  S
C607        C612   1.418       .  A
C607        C616   1.388       .  A
C608        F624   1.383       .  S
C608        F625   1.377       .  S
C608        F626   1.384       .  S
C610        F621   1.381       .  S
C610        F622   1.383       .  S
C610        F623   1.366       .  S
C612        C617   1.518       .  S
C612        C613   1.411       .  A
C613        C614   1.422       .  A
C613        H618   1.085       .  S
C614        C615   1.446       .  A
C615        C619   1.530       .  S
C615        C616   1.402       .  A
C616        H620   1.075       .  S
C617        F630   1.383   1_545  S
C617        F631   1.383       .  S
C617        F632   1.382       .  S
C619        F627   1.370       .  S
C619        F628   1.375       .  S
C619        F629   1.386       .  S
C633        C640   1.542       .  S
C633        C654   1.523       .  S
C633        C898   1.585       .  S
C633        C930   1.586       .  S
C634        C961   1.531       .  S
C634        C969   1.548       .  S
C634        C857   1.584       .  S
C634        C921   1.575       .  S
C635        C954   1.546       .  S
C635        C974   1.537       .  S
C635        C793   1.561       .  S
C635        C825   1.567       .  S
C636        C641   1.529       .  S
C636        C651   1.531       .  S
C636        C761   1.562       .  S
C636        C834   1.573       .  S
O637        C640   1.264       .  A
C638        C951   1.536       .  S
C638        O647   1.268       .  A
C638        O643   1.270   1_556  A
O639        C645   1.269   1_554  A
C640        O648   1.263       .  A
C641        O646   1.267       .  A
C641        O644   1.262       .  A
Cd642       O647   2.499   1_554  S
Cd642       O643   2.447       .  S
Cd642       O646   2.536       .  S
Cd642       O644   2.385       .  S
C645        C950   1.531       .  S
C645        O649   1.266       .  A
O650        C653   1.273       .  A
O650       Cd655   2.497   1_556  S
C651        O660   1.257       .  A
C651        O656   1.271       .  A
O652        C658   1.264   1_554  A
O652       Cd655   2.444       .  S
C653        C950   1.547       .  S
C653        O661   1.272   1_556  A
C654        O659   1.262       .  A
C654        O657   1.255       .  A
Cd655       O662   2.516   1_554  S
Cd655       O661   2.459       .  S
Cd655       O660   2.362       .  S
Cd655       O656   2.560       .  S
Cd655       O659   2.601       .  S
Cd655       O657   2.397       .  S
C658        C951   1.542       .  S
C658        O662   1.267       .  A
C663        C668   1.545       .  S
C663        C683   1.539       .  S
C663        C738   1.571       .  S
C663        C889   1.572       .  S
C664        C991   1.541       .  S
C664       C1004   1.541       .  S
C664        C729   1.582       .  S
C664        C866   1.581       .  S
C665        C986   1.536       .  S
C665        C997   1.537       .  S
C665        C706   1.577       .  S
C665        C802   1.564       .  S
C666        C671   1.536       .  S
C666        C684   1.541       .  S
C666        C697   1.584       .  S
C666        C770   1.567       .  S
O667        C670   1.268   1_556  A
O667       Cd672   2.480   1_556  S
C668        O677   1.267       .  A
C668        O673   1.262       .  A
O669        C675   1.268   1_556  A
C670        C981   1.538   1_554  S
C670        O678   1.267       .  A
C671        O676   1.271       .  A
C671        O674   1.263       .  A
Cd672       O678   2.455       .  S
Cd672       O676   2.551       .  S
Cd672       O674   2.393       .  S
C675        C980   1.544   1_554  S
C675        O679   1.268       .  A
O680        C683   1.270       .  A
O680       Cd685   2.524       .  S
C681        C981   1.535   1_554  S
C681        O690   1.262   1_554  A
C681        O686   1.269       .  A
O682        C688   1.269       .  A
O682       Cd685   2.542       .  S
C683        O691   1.263       .  A
C684        O689   1.273       .  A
C684        O687   1.262       .  A
Cd685       O692   2.481   1_554  S
Cd685       O691   2.420       .  S
Cd685       O690   2.457   1_554  S
Cd685       O686   2.507       .  S
Cd685       O689   2.475       .  S
Cd685       O687   2.490       .  S
C688        C980   1.542   1_554  S
C688        O692   1.264   1_554  A
C693        C694   1.401       .  A
C693        C698   1.422       .  A
C693        H703   1.081       .  S
C694        C695   1.411       .  A
C694        C699   1.507       .  S
C695        C700   1.516       .  S
C695        C696   1.405       .  A
C696        C697   1.419       .  A
C696        H701   1.073       .  S
C697        C698   1.436       .  A
C698        C702   1.518       .  S
C699        C704   1.420       .  A
C699        C708   1.405       .  A
C700        F716   1.376       .  S
C700        F717   1.384       .  S
C700        F718   1.375   1_565  S
C702        F713   1.379       .  S
C702        F714   1.377       .  S
C702        F715   1.378       .  S
C704        C709   1.521       .  S
C704        C705   1.412       .  A
C705        C706   1.417       .  A
C705        H710   1.082       .  S
C706        C707   1.429       .  A
C707        C711   1.522       .  S
C707        C708   1.410       .  A
C708        H712   1.082       .  S
C709        F722   1.385       .  S
C709        F723   1.381       .  S
C709        F724   1.383       .  S
C711        F719   1.379       .  S
C711        F720   1.380       .  S
C711        F721   1.383       .  S
C725        C726   1.403       .  A
C725        C730   1.410       .  A
C725        H735   1.085       .  S
C726        C727   1.429       .  A
C726        C731   1.515       .  S
C727        C732   1.523       .  S
C727        C728   1.407       .  A
C728        C729   1.416       .  A
C728        H733   1.079       .  S
C729        C730   1.445       .  A
C730        C734   1.528       .  S
C731        C736   1.429       .  A
C731        C740   1.398       .  A
C732        F748   1.383       .  S
C732        F749   1.372       .  S
C732        F750   1.386       .  S
C734        F745   1.384       .  S
C734        F746   1.385       .  S
C734        F747   1.371       .  S
C736        C741   1.521       .  S
C736        C737   1.415       .  A
C737        C738   1.416       .  A
C737        H742   1.083       .  S
C738        C739   1.435       .  A
C739        C743   1.524       .  S
C739        C740   1.400       .  A
C740        H744   1.081       .  S
C741        F754   1.384       .  S
C741        F755   1.383       .  S
C741        F756   1.383       .  S
C743        F751   1.370       .  S
C743        F752   1.368       .  S
C743        F753   1.382       .  S
C757        C758   1.398       .  A
C757        C762   1.410       .  A
C757        H767   1.085       .  S
C758        C759   1.408       .  A
C758        C763   1.488       .  S
C759        C764   1.524       .  S
C759        C760   1.402       .  A
C760        C761   1.423       .  A
C760        H765   1.076       .  S
C761        C762   1.439       .  A
C762        C766   1.526       .  S
C763        C768   1.407       .  A
C763        C772   1.393       .  A
C764        F780   1.382       .  S
C764        F781   1.383       .  S
C764        F782   1.385       .  S
C766        F777   1.384       .  S
C766        F778   1.382       .  S
C766        F779   1.376       .  S
C768        C773   1.512       .  S
C768        C769   1.400       .  A
C769        C770   1.416       .  A
C769        H774   1.074       .  S
C770        C771   1.440       .  A
C771        C775   1.519       .  S
C771        C772   1.411       .  A
C772        H776   1.083       .  S
C773        F786   1.385       .  S
C773        F787   1.378       .  S
C773        F788   1.383       .  S
C775        F783   1.385       .  S
C775        F784   1.367       .  S
C775        F785   1.381       .  S
C789        C790   1.397       .  A
C789        C794   1.410       .  A
C789        H799   1.084       .  S
C790       C1107   1.407       .  A
C790        C795   1.486   1_455  S
C791        C796   1.514       .  S
C791       C1106   1.406   1_554  A
C791       C1108   1.395   1_554  A
C792       C1107   1.394       .  A
C792        C793   1.415       .  A
C792       H1113   1.078       .  S
C793        C794   1.442       .  A
C794        C798   1.525       .  S
C795       C1116   1.408       .  A
C795        C804   1.401       .  A
C796        F812   1.381   1_455  S
C796        F813   1.383   1_455  S
C796        F814   1.386       .  S
H797       C1108   1.077   1_554  S
C798        F809   1.383   1_565  S
C798        F810   1.384       .  S
C798        F811   1.376       .  S
C800        C805   1.524       .  S
C800       C1111   1.409   1_554  A
C800        C801   1.404       .  A
C801       C1118   1.424   1_554  A
C801        H806   1.076       .  S
C802       C1117   1.424       .  A
C802        C803   1.439       .  A
C803        C807   1.530       .  S
C803        C804   1.409       .  A
C804        H808   1.083       .  S
C805        F818   1.385       .  S
C805        F819   1.381       .  S
C805        F820   1.383       .  S
C807        F815   1.385       .  S
C807        F816   1.378       .  S
C807        F817   1.382       .  S
C821        C822   1.399       .  A
C821        C826   1.406       .  A
C821        H831   1.082       .  S
C822        C823   1.414       .  A
C822        C827   1.490       .  S
C823        C828   1.522       .  S
C823        C824   1.405       .  A
C824        C825   1.416       .  A
C824        H829   1.076       .  S
C825        C826   1.433       .  A
C826        C830   1.526       .  S
C827        C832   1.412       .  A
C827        C836   1.397       .  A
C828        F844   1.381       .  S
C828        F845   1.384       .  S
C828        F846   1.385       .  S
C830        F841   1.384       .  S
C830        F842   1.379       .  S
C830        F843   1.381       .  S
C832        C837   1.520       .  S
C832        C833   1.403       .  A
C833        C834   1.416       .  A
C833        H838   1.074       .  S
C834        C835   1.438       .  A
C835        C839   1.523       .  S
C835        C836   1.408       .  A
C836        H840   1.084       .  S
C837        F850   1.375       .  S
C837        F851   1.376       .  S
C837        F852   1.383       .  S
C839        F847   1.383   1_565  S
C839        F848   1.375       .  S
C839        F849   1.384       .  S
C853        C854   1.405       .  A
C853        C858   1.425       .  A
C853        H863   1.081       .  S
C854        C855   1.414       .  A
C854        C859   1.514       .  S
C855       C1176   1.511       .  S
C855        C856   1.398       .  A
C856        C857   1.415       .  A
C856       H1177   1.079       .  S
C857        C858   1.448       .  A
C858        C862   1.533       .  S
C859       C1180   1.418       .  A
C859        C868   1.404       .  A
C860       C1171   1.513   1_554  S
C860       F1192   1.379   1_554  S
C860        F877   1.382       .  S
C860        F878   1.386       .  S
H861       C1172   1.077       .  S
C862        F873   1.379       .  S
C862        F874   1.385       .  S
C862        F875   1.377       .  S
C864        C869   1.523       .  S
C864       C1175   1.419   1_554  A
C864        C865   1.419       .  A
C865       C1182   1.425   1_554  A
C865        H870   1.077       .  S
C866       C1181   1.421       .  A
C866        C867   1.439       .  A
C867        C871   1.530       .  S
C867        C868   1.416       .  A
C868        H872   1.081       .  S
C869        F882   1.385       .  S
C869        F883   1.381   1_554  S
C869        F884   1.383       .  S
C871        F879   1.385       .  S
C871        F880   1.378       .  S
C871        F881   1.382       .  S
F876       C1176   1.382       .  S
C885        C886   1.397       .  A
C885        C890   1.416       .  A
C885        H895   1.083       .  S
C886        C887   1.411       .  A
C886        C891   1.497       .  S
C887        C892   1.514       .  S
C887        C888   1.405       .  A
C888        C889   1.416       .  A
C888        H893   1.078       .  S
C889        C890   1.440       .  A
C890        C894   1.520       .  S
C891        C896   1.409   1_655  A
C891        C900   1.393   1_655  A
C892        F908   1.382       .  S
C892        F909   1.385       .  S
C892        F910   1.377       .  S
C894        F905   1.376       .  S
C894        F906   1.386       .  S
C894        F907   1.381       .  S
C896        C901   1.520       .  S
C896        C897   1.412       .  A
C897        C898   1.425       .  A
C897        H902   1.078       .  S
C898        C899   1.448       .  A
C899        C903   1.526       .  S
C899        C900   1.411       .  A
C900        H904   1.086   1_455  S
C901        F914   1.385       .  S
C901        F915   1.383   1_455  S
C901        F916   1.381   1_455  S
C903        F911   1.386       .  S
C903        F912   1.383       .  S
C903        F913   1.369       .  S
C917        C918   1.397       .  A
C917        C922   1.409       .  A
C917        H927   1.085       .  S
C918        C919   1.423       .  A
C918        C923   1.502       .  S
C919        C924   1.521       .  S
C919        C920   1.405       .  A
C920        C921   1.415       .  A
C920        H925   1.079       .  S
C921        C922   1.447       .  A
C922        C926   1.525       .  S
C923        C928   1.424       .  A
C923        C932   1.395       .  A
C924        F940   1.383       .  S
C924        F941   1.374       .  S
C924        F942   1.385       .  S
C926        F937   1.384       .  S
C926        F938   1.384       .  S
C926        F939   1.367       .  S
C928        C933   1.520       .  S
C928        C929   1.411       .  A
C929        C930   1.418       .  A
C929        H934   1.084       .  S
C930        C931   1.441       .  A
C931        C935   1.523       .  S
C931        C932   1.405       .  A
C932        H936   1.084       .  S
C933        F946   1.384       .  S
C933        F947   1.383       .  S
C933        F948   1.382       .  S
C935        F943   1.375       .  S
C935        F944   1.378       .  S
C935        F945   1.386       .  S
C949        C956   1.528       .  S
C949        C970   1.516       .  S
C949       C1214   1.577       .  S
C949       C1246   1.580       .  S
C950       C1173   1.584       .  S
C950       C1237   1.576       .  S
C951       C1109   1.564       .  S
C951       C1141   1.573       .  S
C952        C957   1.529       .  S
C952        C967   1.535       .  S
C952       C1077   1.563       .  S
C952       C1150   1.574       .  S
O953        C956   1.266       .  A
C954        O963   1.267       .  A
C954        O959   1.273       .  A
O955        C961   1.267       .  A
C956        O964   1.254       .  A
C957        O962   1.266       .  A
C957        O960   1.265       .  A
Cd958       O963   2.451       .  S
Cd958       O959   2.481       .  S
Cd958       O962   2.510       .  S
Cd958       O960   2.405       .  S
C961        O965   1.270       .  A
O966        C969   1.273       .  A
O966       Cd971   2.497       .  S
C967        O976   1.258       .  A
C967        O972   1.272       .  A
O968        C974   1.264       .  A
O968       Cd971   2.443       .  S
C969        O977   1.273       .  A
C970        O975   1.264       .  A
C970        O973   1.253       .  A
Cd971       O978   2.495       .  S
Cd971       O977   2.455       .  S
Cd971       O976   2.385       .  S
Cd971       O972   2.568       .  S
Cd971       O975   2.594       .  S
Cd971       O973   2.387       .  S
C974        O978   1.267       .  A
C979        C984   1.535       .  S
C979        C999   1.542       .  S
C979       C1054   1.570       .  S
C979       C1205   1.565       .  S
C980       C1045   1.589       .  S
C980       C1182   1.591       .  S
C981       C1022   1.577       .  S
C981       C1118   1.565       .  S
C982        C987   1.533       .  S
C982       C1000   1.545       .  S
C982       C1013   1.579       .  S
C982       C1086   1.562       .  S
O983        C986   1.267       .  A
O983       Cd988   2.482   1_565  S
C984        O993   1.267       .  A
C984        O989   1.262       .  A
O985        C991   1.268       .  A
C986        O994   1.267       .  A
C987        O992   1.271       .  A
C987        O990   1.263       .  A
Cd988       O994   2.449   1_545  S
Cd988       O992   2.521   1_545  S
Cd988       O990   2.404   1_545  S
C991        O995   1.268       .  A
O996        C999   1.269       .  A
O996      Cd1001   2.528       .  S
C997       O1006   1.263       .  A
C997       O1002   1.270       .  A
O998       C1004   1.269       .  A
O998      Cd1001   2.531       .  S
C999       O1007   1.264       .  A
C1000      O1005   1.271       .  A
C1000      O1003   1.263       .  A
Cd1001     O1008   2.497       .  S
Cd1001     O1007   2.448       .  S
Cd1001     O1006   2.471       .  S
Cd1001     O1002   2.502       .  S
Cd1001     O1005   2.473       .  S
Cd1001     O1003   2.522       .  S
C1004      O1008   1.264       .  A
C1009      C1010   1.403       .  A
C1009      C1014   1.419       .  A
C1009      H1019   1.081       .  S
C1010      C1011   1.412       .  A
C1010      C1015   1.503       .  S
C1011      C1016   1.518       .  S
C1011      C1012   1.402       .  A
C1012      C1013   1.418       .  A
C1012      H1017   1.075       .  S
C1013      C1014   1.437       .  A
C1014      C1018   1.522       .  S
C1015      C1020   1.419       .  A
C1015      C1024   1.406       .  A
C1016      F1032   1.379       .  S
C1016      F1033   1.384       .  S
C1016      F1034   1.377   1_565  S
C1018      F1029   1.377       .  S
C1018      F1030   1.376       .  S
C1018      F1031   1.379       .  S
C1020      C1025   1.522       .  S
C1020      C1021   1.411       .  A
C1021      C1022   1.419       .  A
C1021      H1026   1.082       .  S
C1022      C1023   1.429       .  A
C1023      C1027   1.522       .  S
C1023      C1024   1.409       .  A
C1024      H1028   1.083       .  S
C1025      F1038   1.385       .  S
C1025      F1039   1.381       .  S
C1025      F1040   1.383       .  S
C1027      F1035   1.379       .  S
C1027      F1036   1.379       .  S
C1027      F1037   1.382       .  S
C1041      C1042   1.401       .  A
C1041      C1046   1.416       .  A
C1041      H1051   1.084       .  S
C1042      C1043   1.423       .  A
C1042      C1047   1.519       .  S
C1043      C1048   1.517       .  S
C1043      C1044   1.404       .  A
C1044      C1045   1.415       .  A
C1044      H1049   1.077       .  S
C1045      C1046   1.452       .  A
C1046      C1050   1.529       .  S
C1047      C1052   1.426       .  A
C1047      C1056   1.400       .  A
C1048      F1064   1.383       .  S
C1048      F1065   1.375       .  S
C1048      F1066   1.384       .  S
C1050      F1061   1.384       .  S
C1050      F1062   1.384       .  S
C1050      F1063   1.371   1_556  S
C1052      C1057   1.518       .  S
C1052      C1053   1.417       .  A
C1053      C1054   1.418       .  A
C1053      H1058   1.078       .  S
C1054      C1055   1.434       .  A
C1055      C1059   1.526       .  S
C1055      C1056   1.399       .  A
C1056      H1060   1.076       .  S
C1057      F1070   1.385       .  S
C1057      F1071   1.382       .  S
C1057      F1072   1.382       .  S
C1059      F1067   1.374       .  S
C1059      F1068   1.368       .  S
C1059      F1069   1.382       .  S
C1073      C1074   1.396       .  A
C1073      C1078   1.409       .  A
C1073      H1083   1.085       .  S
C1074      C1075   1.408       .  A
C1074      C1079   1.483       .  S
C1075      C1080   1.524       .  S
C1075      C1076   1.400       .  A
C1076      C1077   1.422       .  A
C1076      H1081   1.077       .  S
C1077      C1078   1.439       .  A
C1078      C1082   1.524       .  S
C1079      C1084   1.406       .  A
C1079      C1088   1.394       .  A
C1080      F1096   1.382       .  S
C1080      F1097   1.382       .  S
C1080      F1098   1.385       .  S
C1082      F1093   1.384       .  S
C1082      F1094   1.381       .  S
C1082      F1095   1.376       .  S
C1084      C1089   1.512       .  S
C1084      C1085   1.396       .  A
C1085      C1086   1.414       .  A
C1085      H1090   1.073       .  S
C1086      C1087   1.441       .  A
C1087      C1091   1.521       .  S
C1087      C1088   1.410       .  A
C1088      H1092   1.083       .  S
C1089      F1102   1.385       .  S
C1089      F1103   1.378       .  S
C1089      F1104   1.383       .  S
C1091      F1099   1.385       .  S
C1091      F1100   1.365       .  S
C1091      F1101   1.381       .  S
C1105      C1106   1.399       .  A
C1105      C1110   1.414       .  A
C1105      H1115   1.082       .  S
C1106      C1111   1.489   1_455  S
C1107      C1112   1.511       .  S
C1108      C1109   1.416       .  A
C1109      C1110   1.441       .  A
C1110      C1114   1.525       .  S
C1111      C1120   1.399       .  A
C1112      F1128   1.384       .  S
C1112      F1129   1.381   1_455  S
C1112      F1130   1.385       .  S
C1114      F1125   1.381   1_565  S
C1114      F1126   1.385   1_565  S
C1114      F1127   1.377       .  S
C1116      C1121   1.524       .  S
C1116      C1117   1.403       .  A
C1117      H1122   1.075       .  S
C1118      C1119   1.438       .  A
C1119      C1123   1.530       .  S
C1119      C1120   1.410       .  A
C1120      H1124   1.082       .  S
C1121      F1134   1.385       .  S
C1121      F1135   1.381       .  S
C1121      F1136   1.383       .  S
C1123      F1131   1.385       .  S
C1123      F1132   1.376       .  S
C1123      F1133   1.381       .  S
C1137      C1138   1.399       .  A
C1137      C1142   1.408       .  A
C1137      H1147   1.082       .  S
C1138      C1139   1.416       .  A
C1138      C1143   1.498       .  S
C1139      C1144   1.521       .  S
C1139      C1140   1.410       .  A
C1140      C1141   1.419       .  A
C1140      H1145   1.081       .  S
C1141      C1142   1.435       .  A
C1142      C1146   1.524       .  S
C1143      C1148   1.414       .  A
C1143      C1152   1.400       .  A
C1144      F1160   1.382       .  S
C1144      F1161   1.384       .  S
C1144      F1162   1.385       .  S
C1146      F1157   1.383       .  S
C1146      F1158   1.378       .  S
C1146      F1159   1.380       .  S
C1148      C1153   1.520       .  S
C1148      C1149   1.403       .  A
C1149      C1150   1.412       .  A
C1149      H1154   1.073       .  S
C1150      C1151   1.439       .  A
C1151      C1155   1.523       .  S
C1151      C1152   1.412       .  A
C1152      H1156   1.085       .  S
C1153      F1166   1.375       .  S
C1153      F1167   1.374       .  S
C1153      F1168   1.383       .  S
C1155      F1163   1.383   1_565  S
C1155      F1164   1.374       .  S
C1155      F1165   1.384       .  S
C1169      C1170   1.405       .  A
C1169      C1174   1.426       .  A
C1169      H1179   1.080       .  S
C1170      C1171   1.416       .  A
C1170      C1175   1.520       .  S
C1171      C1172   1.404       .  A
C1172      C1173   1.414       .  A
C1173      C1174   1.447       .  A
C1174      C1178   1.533       .  S
C1175      C1184   1.403       .  A
C1176      F1193   1.379       .  S
C1176      F1194   1.386       .  S
C1178      F1189   1.377       .  S
C1178      F1190   1.384       .  S
C1178      F1191   1.375       .  S
C1180      C1185   1.522       .  S
C1180      C1181   1.414       .  A
C1181      H1186   1.078       .  S
C1182      C1183   1.441       .  A
C1183      C1187   1.530       .  S
C1183      C1184   1.417       .  A
C1184      H1188   1.081       .  S
C1185      F1198   1.385       .  S
C1185      F1199   1.381       .  S
C1185      F1200   1.384       .  S
C1187      F1195   1.385       .  S
C1187      F1196   1.378       .  S
C1187      F1197   1.381   1_556  S
C1201      C1202   1.395       .  A
C1201      C1206   1.413       .  A
C1201      H1211   1.084       .  S
C1202      C1203   1.411       .  A
C1202      C1207   1.493   1_655  S
C1203      C1208   1.512       .  S
C1203      C1204   1.403       .  A
C1204      C1205   1.414       .  A
C1204      H1209   1.079       .  S
C1205      C1206   1.442       .  A
C1206      C1210   1.523       .  S
C1207      C1212   1.407       .  A
C1207      C1216   1.397       .  A
C1208      F1224   1.381       .  S
C1208      F1225   1.384       .  S
C1208      F1226   1.375       .  S
C1210      F1221   1.377       .  S
C1210      F1222   1.385       .  S
C1210      F1223   1.383       .  S
C1212      C1217   1.521       .  S
C1212      C1213   1.408       .  A
C1213      C1214   1.421       .  A
C1213      H1218   1.076       .  S
C1214      C1215   1.447       .  A
C1215      C1219   1.534       .  S
C1215      C1216   1.414       .  A
C1216      H1220   1.083   1_455  S
C1217      F1230   1.385       .  S
C1217      F1231   1.382   1_455  S
C1217      F1232   1.381   1_455  S
C1219      F1227   1.386       .  S
C1219      F1228   1.370       .  S
C1219      F1229   1.381       .  S
C1233      C1234   1.396       .  A
C1233      C1238   1.408       .  A
C1233      H1243   1.085       .  S
C1234      C1235   1.423       .  A
C1234      C1239   1.500       .  S
C1235      C1240   1.522       .  S
C1235      C1236   1.407       .  A
C1236      C1237   1.416       .  A
C1236      H1241   1.080       .  S
C1237      C1238   1.447       .  A
C1238      C1242   1.526       .  S
C1239      C1244   1.421       .  A
C1239      C1248   1.393       .  A
C1240      F1256   1.383       .  S
C1240      F1257   1.376       .  S
C1240      F1258   1.384       .  S
C1242      F1253   1.382       .  S
C1242      F1254   1.384       .  S
C1242      F1255   1.367       .  S
C1244      C1249   1.519       .  S
C1244      C1245   1.410       .  A
C1245      C1246   1.419       .  A
C1245      H1250   1.084       .  S
C1246      C1247   1.447       .  A
C1247      C1251   1.535       .  S
C1247      C1248   1.404       .  A
C1248      H1252   1.083       .  S
C1249      F1262   1.384       .  S
C1249      F1263   1.382       .  S
C1249      F1264   1.382       .  S
C1251      F1259   1.368       .  S
C1251      F1260   1.375       .  S
C1251      F1261   1.387       .  S
