geometry optimzed in LAMMPS
_audit_creation_date              2020-11-30 
_audit_creation_method            'lammps2cif' 
_symmetry_space_group_name_H-M    'P1' 
_symmetry_Int_Tables_number       1 
_symmetry_cell_setting            triclinic 
loop_ 
_symmetry_equiv_pos_as_xyz 
  x,y,z 
_cell_length_a                    32.90588917 
_cell_length_b                    33.11393068620137 
_cell_length_c                    32.95094377978499 
_cell_angle_alpha                 88.80525687893368 
_cell_angle_beta                  88.91776229145259 
_cell_angle_gamma                 91.28840006048753 
loop_ 
_atom_site_label 
_atom_site_type_symbol 
_atom_site_fract_x 
_atom_site_fract_y 
_atom_site_fract_z 
_atom_site_charge 
O1          O  0.54053965  0.05068546  0.86202149    -0.81200
O2          O  0.53248654  0.06133195  0.63051505    -0.82800
O3          O  0.61681755  0.04297012  0.74343764    -0.79800
O4          O  0.52225210  0.13427327  0.74877009    -0.78200
O5          O  0.45285749  0.13236057  0.75127595    -0.80000
O6          O  0.61629920  0.97395045  0.74738256    -0.80900
O7          O  0.56121929  0.09846029  0.68066946    -0.82200
O8          O  0.57527759  0.08430828  0.81027160    -0.82500
Eu9        Eu  0.54637373  0.06503480  0.74630853     2.39200
O10         O  0.48918629  0.06279905  0.70657414    -0.90000
O11         O  0.54485782  0.00766292  0.78857073    -0.93600
C12         C  0.56935466  0.07459036  0.84794928     1.01100
C13         C  0.55238615  0.09262827  0.64326445     1.00900
C14         C  0.63466555  0.00869437  0.74537862     1.00800
C15         C  0.48745044  0.15136826  0.75043679     0.98700
H16         H  0.57309679  0.00794026  0.68785458     0.28400
O17         O  0.54906310  0.00748533  0.70517783    -1.02400
H18         H  0.48847723  0.08832002  0.80736247     0.28500
O19         O  0.48879186  0.06476847  0.79053963    -1.04900
O20         O  0.44861175  0.95527561  0.63257556    -0.82200
O21         O  0.43339299  0.96532265  0.86620609    -0.81700
O22         O  0.56577835  0.92148109  0.68501378    -0.80100
O23         O  0.41465069  0.09090126  0.68358432    -0.83500
O24         O  0.39853747  0.07451094  0.81356927    -0.81300
O25         O  0.57386253  0.93246478  0.81564876    -0.80000
O26         O  0.45217650  0.87781432  0.75245622    -0.81500
O27         O  0.36081803  0.97053903  0.74488106    -0.83400
O28         O  0.52162620  0.87932702  0.74968725    -0.80200
O29         O  0.36093375  0.03948789  0.74566423    -0.82900
O30         O  0.53395863  0.95516229  0.63370978    -0.78600
O31         O  0.53885156  0.96380582  0.86617776    -0.78600
O32         O  0.43559461  0.04717115  0.86480337    -0.78300
O33         O  0.44809182  0.05799485  0.63298563    -0.81800
O34         O  0.42000087  0.91631528  0.68439854    -0.81200
O35         O  0.39829639  0.93295874  0.81664690    -0.79500
Eu36       Eu  0.49080724  0.00692162  0.66479617     2.39800
Eu37       Eu  0.48825177  0.00607064  0.83241199     2.39600
Eu38       Eu  0.54589496  0.95000362  0.74961624     2.38400
Eu39       Eu  0.43156785  0.06158179  0.74855172     2.39900
Eu40       Eu  0.43084822  0.94775221  0.75006738     2.39800
O41         O  0.43231955  0.00445075  0.79005332    -0.93900
O42         O  0.48915635  0.95119132  0.70930164    -0.92800
C43         C  0.42910758  0.92361092  0.64667436     1.01200
C44         C  0.40308171  0.94366686  0.85380054     1.00000
C45         C  0.55671784  0.92677071  0.64746669     0.99400
C46         C  0.42481991  0.08591249  0.64622814     1.01400
C47         C  0.40473930  0.06652850  0.85131314     1.00300
C48         C  0.56784667  0.94145620  0.85313838     0.99100
C49         C  0.48681713  0.86051271  0.75042139     0.99200
C50         C  0.34276948  0.00474276  0.74469651     1.01800
H51         H  0.48741283  0.92325816  0.81042650     0.29200
O52         O  0.48782285  0.94706250  0.79299679    -1.06100
H53         H  0.40744866  0.00466933  0.68864984     0.31200
O54         O  0.43088174  0.00496274  0.70589940    -1.08600
C55         C  0.66982413  0.24528889  0.49872649     0.85400
C56         C  0.64746529  0.22668536  0.53625111    -0.54800
C57         C  0.60686320  0.22025425  0.53167820     0.08300
C58         C  0.59153403  0.23476273  0.48993001     0.19300
C59         C  0.65826206  0.21646143  0.46446828    -0.55600
C60         C  0.61721032  0.21082597  0.45941267     0.08400
C61         C  0.64783032  0.28426072  0.48887809    -0.55100
C62         C  0.60692661  0.27933236  0.48425253     0.09000
H63         H  0.66270499  0.21364137  0.56209510     0.13500
H64         H  0.55814954  0.23111739  0.48684813    -0.00700
H65         H  0.68097888  0.20039989  0.44727492     0.13800
H66         H  0.66333024  0.31357711  0.48742995     0.13600
O67         O  0.53391033  0.05771851  0.36650487    -0.81200
O68         O  0.54150768  0.05176286  0.13298924    -0.82800
O69         O  0.61946849  0.04196761  0.25077658    -0.79800
O70         O  0.52537979  0.13543002  0.24858648    -0.78200
O71         O  0.45595870  0.13126025  0.24926218    -0.80000
O72         O  0.61822334  0.97296534  0.25182347    -0.80900
O73         O  0.57790024  0.08350605  0.18219315    -0.82200
O74         O  0.56835685  0.09217245  0.31495233    -0.82500
Eu75       Eu  0.54905039  0.06506152  0.24937300     2.39200
O76         O  0.49107539  0.06542606  0.20787952    -0.90000
O77         O  0.54962211  0.00718924  0.29284085    -0.93600
C78         C  0.55811394  0.08640461  0.35265724     1.01100
C79         C  0.57143222  0.07434352  0.14492098     1.00900
C80         C  0.63705658  0.00749798  0.25130141     1.00800
C81         C  0.48981612  0.15127705  0.24881584     0.98700
H82         H  0.57165798  0.00828543  0.19307117     0.28400
O83         O  0.54707982  0.00794822  0.20942438    -1.02400
H84         H  0.49172806  0.08566898  0.30668133     0.28500
O85         O  0.49151332  0.06133853  0.29122126    -1.04900
O86         O  0.43909850  0.96179722  0.13642962    -0.82200
O87         O  0.44703195  0.95162005  0.36906079    -0.81700
O88         O  0.57614910  0.93361394  0.18519186    -0.80100
O89         O  0.40516029  0.08247798  0.18682505    -0.83500
O90         O  0.41680503  0.09090776  0.31760215    -0.81300
O91         O  0.56672329  0.92117661  0.31595195    -0.80000
O92         O  0.45507055  0.87755999  0.24965037    -0.81500
O93         O  0.36164311  0.96987398  0.25493037    -0.83400
O94         O  0.52449217  0.88010791  0.24705740    -0.80200
O95         O  0.36356044  0.03883791  0.25432024    -0.82900
O96         O  0.53994908  0.96357539  0.13456545    -0.78600
O97         O  0.53647379  0.95572909  0.36733134    -0.78600
O98         O  0.44808097  0.05582593  0.36839940    -0.78300
O99         O  0.43808461  0.04947846  0.13594820    -0.81800
O100        O  0.40268176  0.92962415  0.18811922    -0.81200
O101        O  0.41273896  0.91785866  0.31979765    -0.79500
Eu102      Eu  0.49000161  0.00693495  0.16772627     2.39800
Eu103      Eu  0.49072464  0.00492278  0.33536934     2.39600
Eu104      Eu  0.54729496  0.95037896  0.25091136     2.38400
Eu105      Eu  0.43378982  0.06151188  0.25204057     2.39900
Eu106      Eu  0.43198095  0.94731557  0.25337650     2.39800
O107        O  0.43117291  0.00409026  0.29589051    -0.93900
O108        O  0.48963907  0.94799152  0.20957015    -0.92800
C109        C  0.40935771  0.93895411  0.15032079     1.01200
C110        C  0.42321859  0.92277786  0.35694535     1.00000
C111        C  0.56956703  0.94222977  0.14765807     0.99400
C112        C  0.41016277  0.07298163  0.14928346     1.01400
C113        C  0.42657695  0.08534134  0.35501111     1.00300
C114        C  0.55873098  0.92702857  0.35376443     0.99100
C115        C  0.49006092  0.86081135  0.24756645     0.99200
C116        C  0.34454514  0.00454788  0.25413094     1.01800
H117        H  0.49014018  0.92394864  0.30903014     0.29200
O118        O  0.48988477  0.94869180  0.29309539    -1.06100
H119        H  0.40882895  0.00515710  0.19635906     0.31200
O120        O  0.43339944  0.00500009  0.21180812    -1.08600
C121        C  0.25229487  0.82918787  0.00444435     0.85400
C122        C  0.27095980  0.85015570  0.96630575    -0.54800
C123        C  0.27715862  0.89081201  0.96893176     0.08300
C124        C  0.26293526  0.90739117  0.01025255     0.19300
C125        C  0.28146195  0.84169128  0.03809867    -0.55600
C126        C  0.28703488  0.88243633  0.04118952     0.08400
C127        C  0.21303515  0.85143564  0.01343387    -0.55100
C128        C  0.21799925  0.89232573  0.01660634     0.09000
H129        H  0.28422266  0.83385602  0.94141094     0.13500
H130        H  0.26755698  0.94057197  0.01276502    -0.00700
H131        H  0.29770403  0.82021456  0.05674689     0.13800
H132        H  0.18354580  0.83606034  0.01545951     0.13600
C133        C  0.72019838  0.82852981  0.00289324     0.85400
C134        C  0.69679879  0.84518704  0.03961168    -0.54800
C135        C  0.69082350  0.88570155  0.03726528     0.08300
C136        C  0.70913542  0.90663141  0.99898019     0.19300
C137        C  0.69512472  0.84251304  0.96653636    -0.55600
C138        C  0.68898995  0.88329853  0.96422120     0.08400
C139        C  0.75958490  0.85371731  0.99961042    -0.55100
C140        C  0.75424943  0.89440479  0.99819395     0.09000
H141        H  0.68196168  0.82672252  0.06330489     0.13500
H142        H  0.70477363  0.93978018  0.99760090    -0.00700
H143        H  0.68114320  0.82130387  0.94603151     0.13800
H144        H  0.78944496  0.84038156  0.99830446     0.13600
C145        C  0.66969359  0.77308441  0.50006286     0.85400
C146        C  0.65409679  0.79720856  0.46346147    -0.54800
C147        C  0.61355955  0.80430998  0.46517097     0.08300
C148        C  0.59155454  0.78576026  0.50311370     0.19300
C149        C  0.65584989  0.79789684  0.53654387    -0.55600
C150        C  0.61493839  0.80470990  0.53861093     0.08400
C151        C  0.64373388  0.73447438  0.50262372    -0.55100
C152        C  0.60299396  0.74057633  0.50385804     0.09000
H153        H  0.67369609  0.81140907  0.44019561     0.13500
H154        H  0.55828288  0.79040944  0.50392312    -0.00700
H155        H  0.67735411  0.81145066  0.55707614     0.13800
H156        H  0.65660584  0.70454549  0.50414465     0.13600
C157        C  0.26010625  0.18737712  0.99686117     0.85400
C158        C  0.28566697  0.17367892  0.03279053    -0.54800
C159        C  0.29020899  0.13279975  0.03683191     0.08300
C160        C  0.26812395  0.10901655  0.00321514     0.19300
C161        C  0.28140802  0.16866266  0.95989816    -0.55600
C162        C  0.28606243  0.12789298  0.96346090     0.08400
C163        C  0.21986848  0.16388942  0.00191402    -0.55100
C164        C  0.22347022  0.12309051  0.00465507     0.09000
H165        H  0.30080742  0.19543029  0.05185672     0.13500
H166        H  0.27089450  0.07573468  0.00550411    -0.00700
H167        H  0.29517595  0.18565126  0.93459994     0.13800
H168        H  0.19062448  0.17848601  0.00323451     0.13600
C169        C  0.72571210  0.18786732  0.99357888     0.85400
C170        C  0.69900243  0.17506447  0.95815792    -0.54800
C171        C  0.69195307  0.13428287  0.95594058     0.08300
C172        C  0.71239150  0.10999886  0.99020929     0.19300
C173        C  0.70302045  0.16943378  0.03097162    -0.55600
C174        C  0.69551836  0.12905454  0.02919865     0.08400
C175        C  0.76443885  0.16388000  0.98887295    -0.55100
C176        C  0.75801401  0.12312565  0.98713856     0.09000
H177        H  0.68465195  0.19686119  0.93835420     0.13500
H178        H  0.70733741  0.07679879  0.98934703    -0.00700
H179        H  0.68936678  0.18709520  0.05478572     0.13800
H180        H  0.79457342  0.17799190  0.98842024     0.13600
C181        C  0.31632114  0.23991981  0.49587043     0.85400
C182        C  0.33415552  0.21689245  0.45969177    -0.54800
C183        C  0.37479744  0.21023101  0.46207335     0.08300
C184        C  0.39449233  0.22808652  0.49993505     0.19300
C185        C  0.32869102  0.21441208  0.53274214    -0.55600
C186        C  0.36952658  0.20814000  0.53531795     0.08400
C187        C  0.34185617  0.27878040  0.49770983    -0.55100
C188        C  0.38255805  0.27291433  0.49972456     0.09000
H189        H  0.31610965  0.20282950  0.43647185     0.13500
H190        H  0.42781348  0.22396232  0.50095448    -0.00700
H191        H  0.30623606  0.20013843  0.55321157     0.13800
H192        H  0.32890878  0.30865333  0.49591010     0.13600
C193        C  0.31254716  0.76999690  0.51239935     0.85400
C194        C  0.33160170  0.79502677  0.54633378    -0.54800
C195        C  0.37279556  0.79916260  0.54323056     0.08300
C196        C  0.39170034  0.77763437  0.50691125     0.19300
C197        C  0.32833943  0.79133959  0.47337887    -0.55600
C198        C  0.36951118  0.79601189  0.47025358     0.08400
C199        C  0.33415268  0.72971733  0.51417592    -0.55100
C200        C  0.37553785  0.73333926  0.51172900     0.09000
H201        H  0.31487187  0.81174384  0.56874728     0.13500
H202        H  0.42535009  0.78085638  0.50469978    -0.00700
H203        H  0.30797320  0.80515655  0.45182857     0.13800
H204        H  0.31796764  0.70078284  0.51648295     0.13600
O205        O  0.86209061  0.75736084  0.53408331    -0.81200
O206        O  0.02874868  0.75615375  0.37260343    -0.82800
O207        O  0.91705594  0.82548877  0.41517805    -0.79800
O208        O  0.90611982  0.69405359  0.42382968    -0.78200
O209        O  0.93917302  0.64397491  0.45799852    -0.80000
O210        O  0.94787733  0.87565975  0.45118546    -0.80900
O211        O  0.95936084  0.75633262  0.37218330    -0.82200
O212        O  0.86391442  0.75885052  0.46473433    -0.82500
Eu213      Eu  0.93510139  0.75945570  0.44275309     2.39200
O214        O  0.99267658  0.71841537  0.44214199    -0.90000
O215        O  0.93260216  0.80061658  0.50055684    -0.93600
C216        C  0.84482610  0.75760597  0.49925640     1.01100
C217        C  0.99447817  0.75494218  0.35427074     1.00900
C218        C  0.92562990  0.86289651  0.42193983     1.00800
C219        C  0.91107055  0.65675908  0.43426165     0.98700
H220        H  0.99245622  0.81763379  0.41867842     0.28400
O221        O  0.99249902  0.80157107  0.44338940    -1.02400
H222        H  0.91025400  0.70200390  0.50023132     0.28500
O223        O  0.93493474  0.71815536  0.50051072    -1.04900
O224        O  0.12076217  0.76537697  0.46631211    -0.82200
O225        O  0.95401240  0.75589883  0.62894505    -0.81700
O226        O  0.03585583  0.87778438  0.44942518    -0.80100
O227        O  0.04262056  0.64649684  0.45517754    -0.83500
O228        O  0.93798866  0.64132266  0.54380134    -0.81300
O229        O  0.94868660  0.87340381  0.55275827    -0.80000
O230        O  0.06592044  0.82333571  0.58810044    -0.81500
O231        O  0.07654673  0.69398065  0.57744226    -0.83400
O232        O  0.03592343  0.87410376  0.55210423    -0.80200
O233        O  0.04310410  0.64377020  0.54386053    -0.82900
O234        O  0.06649698  0.82887782  0.41232035    -0.78600
O235        O  0.91220481  0.82228894  0.58553446    -0.78600
O236        O  0.90148552  0.69018772  0.57536954    -0.78300
O237        O  0.07817799  0.69862897  0.42325337    -0.81800
O238        O  0.11742707  0.76441209  0.53568509    -0.81200
O239        O  0.02343967  0.75656842  0.62841054    -0.79500
Eu240      Eu  0.05019866  0.76239074  0.44299000     2.39800
Eu241      Eu  0.93196885  0.75695426  0.55830305     2.39600
Eu242      Eu  0.99203155  0.84244976  0.50085748     2.38400
Eu243      Eu  0.99120908  0.67604271  0.50092463     2.39900
Eu244      Eu  0.04718819  0.75885359  0.55824134     2.39800
O245        O  0.98942995  0.71509518  0.56036627    -0.93900
O246        O  0.05101543  0.80308839  0.50094301    -0.92800
C247        C  0.13712748  0.76549210  0.50162883     1.01200
C248        C  0.98859941  0.75667766  0.64677894     1.00000
C249        C  0.05721257  0.86587742  0.41878520     0.99400
C250        C  0.07187277  0.66093261  0.43192185     1.01400
C251        C  0.90743463  0.65319117  0.56547500     1.00300
C252        C  0.92338642  0.85972921  0.58048619     0.99100
C253        C  0.05723397  0.86070333  0.58192253     0.99200
C254        C  0.07145606  0.65677773  0.56738131     1.01800
H255        H  0.98954598  0.81373088  0.58183890     0.29200
O256        O  0.98991321  0.79839573  0.55733447    -1.06100
H257        H  0.07261769  0.70486781  0.50039017     0.31200
O258        O  0.04799447  0.72006625  0.50044181    -1.08600
O259        O  0.86403248  0.25645679  0.54219111    -0.81200
O260        O  0.02668226  0.26648890  0.37432711    -0.82800
O261        O  0.90671959  0.32532092  0.43253990    -0.79800
O262        O  0.91634674  0.19711118  0.41714600    -0.78200
O263        O  0.94880825  0.14590829  0.44984868    -0.80000
O264        O  0.94298093  0.37576737  0.46273853    -0.80900
O265        O  0.95724453  0.26630084  0.37806354    -0.82200
O266        O  0.86527759  0.25984016  0.47292627    -0.82500
Eu267      Eu  0.93571050  0.26059243  0.44856366     2.39200
O268        O  0.99293257  0.22104486  0.44679223    -0.90000
O269        O  0.93758773  0.29942251  0.50617491    -0.93600
C270        C  0.84637059  0.25861307  0.50752373     1.01100
C271        C  0.99124083  0.26726189  0.35815260     1.00900
C272        C  0.91288139  0.36248291  0.44163915     1.00800
C273        C  0.92585466  0.15976232  0.42156515     0.98700
H274        H  0.99380090  0.32205531  0.42181682     0.28400
O275        O  0.99388579  0.30409044  0.44523592    -1.02400
H276        H  0.90877541  0.19861645  0.50536383     0.28500
O277        O  0.93298277  0.21567196  0.50512031    -1.04900
O278        O  0.12193567  0.25856286  0.46620472    -0.82200
O279        O  0.95970502  0.25779828  0.63258993    -0.81700
O280        O  0.04894489  0.37764988  0.46373484    -0.80100
O281        O  0.03562330  0.14721867  0.44901183    -0.83500
O282        O  0.94970162  0.14102296  0.55540687    -0.81300
O283        O  0.94274772  0.37265492  0.54870684    -0.80000
O284        O  0.08351804  0.32085114  0.57628242    -0.81500
O285        O  0.06678550  0.19163952  0.58787741    -0.83400
O286        O  0.04705606  0.37189548  0.54806825    -0.80200
O287        O  0.03385013  0.14195309  0.55323094    -0.82900
O288        O  0.08273945  0.32881526  0.42949035    -0.78600
O289        O  0.90780060  0.32133056  0.58274607    -0.78600
O290        O  0.92090673  0.19016030  0.59362839    -0.78300
O291        O  0.06941607  0.19872659  0.41411835    -0.81800
O292        O  0.12252296  0.25523032  0.53549192    -0.81200
O293        O  0.02916969  0.25833461  0.63014092    -0.79500
Eu294      Eu  0.05125435  0.26232012  0.44432826     2.39800
Eu295      Eu  0.93562361  0.25680719  0.56301321     2.39600
Eu296      Eu  0.99473140  0.34247135  0.50470009     2.38400
Eu297      Eu  0.99192226  0.17607880  0.50224217     2.39900
Eu298      Eu  0.05139276  0.25735416  0.55907617     2.39800
O299        O  0.99285092  0.21691457  0.55911938    -0.93900
O300        O  0.05084513  0.30048292  0.50256970    -0.92800
C301        C  0.14048925  0.25647469  0.50031481     1.01200
C302        C  0.99472699  0.25794815  0.64945890     1.00000
C303        C  0.07814939  0.36566381  0.44040007     0.99400
C304        C  0.05942358  0.16121862  0.42006745     1.01400
C305        C  0.92952035  0.15308585  0.58680788     1.00300
C306        C  0.91384380  0.35880618  0.57260924     0.99100
C307        C  0.07730030  0.35832486  0.56831449     0.99200
C308        C  0.05662453  0.15449422  0.58214754     1.01800
H309        H  0.99497311  0.31594384  0.58681373     0.29200
O310        O  0.99434116  0.29957163  0.56284962    -1.06100
H311        H  0.07524734  0.20004399  0.50024363     0.31200
O312        O  0.05171707  0.21704516  0.50095201    -1.08600
C313        C  0.75290336  0.50621444  0.67821192     0.85400
C314        C  0.78210567  0.47211414  0.66809257    -0.54800
C315        C  0.78931855  0.46685925  0.62748262     0.08300
C316        C  0.76664317  0.49754211  0.60058493     0.19300
C317        C  0.77267070  0.54351838  0.65675779    -0.55600
C318        C  0.78070866  0.53900238  0.61649804     0.08400
C319        C  0.71462450  0.49672200  0.65456389    -0.55100
C320        C  0.72130168  0.49233230  0.61393218     0.09000
H321        H  0.79722399  0.45515801  0.69167498     0.13500
H322        H  0.77144178  0.49465050  0.56740293    -0.00700
H323        H  0.78472356  0.56946751  0.67242301     0.13800
H324        H  0.68449302  0.49553780  0.66865524     0.13600
C325        C  0.22671833  0.50703818  0.67845840     0.85400
C326        C  0.20038757  0.54260219  0.66531074    -0.54800
C327        C  0.19357419  0.54561912  0.62444317     0.08300
C328        C  0.21402474  0.51147091  0.60041423     0.19300
C329        C  0.20407295  0.47009727  0.66190522    -0.55600
C330        C  0.19735732  0.47236711  0.62135922     0.08400
C331        C  0.26556233  0.51160923  0.65278704    -0.55100
C332        C  0.25929253  0.51333816  0.61211538     0.09000
H333        H  0.18643048  0.56214793  0.68731101     0.13500
H334        H  0.20939875  0.51272589  0.56716637    -0.00700
H335        H  0.19065712  0.44581697  0.68063183     0.13800
H336        H  0.29570084  0.51297791  0.66570820     0.13600
C337        C  0.81217410  0.00956554  0.27018825     0.85400
C338        C  0.82758850  0.97395600  0.29583802    -0.54800
C339        C  0.86814745  0.97591897  0.30286516     0.08300
C340        C  0.89027558  0.01302795  0.28337942     0.19300
C341        C  0.82615449  0.04684256  0.29387428    -0.55600
C342        C  0.86701783  0.04889184  0.30101240     0.08400
C343        C  0.83836276  0.01064773  0.23149719    -0.55100
C344        C  0.87906520  0.01213772  0.23806088     0.09000
H345        H  0.80809523  0.95087772  0.31040635     0.13500
H346        H  0.92352930  0.01409156  0.28843513    -0.00700
H347        H  0.80493828  0.06806471  0.30650428     0.13800
H348        H  0.82572674  0.01099559  0.20125700     0.13600
C349        C  0.81074938  0.00654973  0.73666960     0.85400
C350        C  0.83265298  0.04373194  0.71708546    -0.54800
C351        C  0.87328258  0.03959883  0.71121878     0.08300
C352        C  0.88909278  0.99874211  0.72681276     0.19300
C353        C  0.82261674  0.97201142  0.70882253    -0.55600
C354        C  0.86361411  0.96737708  0.70334108     0.08400
C355        C  0.83278509  0.99830252  0.77628258    -0.55100
C356        C  0.87378490  0.99434045  0.77169473     0.09000
H357        H  0.81757028  0.06925331  0.70355608     0.13500
H358        H  0.92251089  0.99621709  0.72339520    -0.00700
H359        H  0.79984272  0.95458235  0.69296148     0.13800
H360        H  0.81732709  0.99758571  0.80571872     0.13600
C361        C  0.76321434  0.50058683  0.32240023     0.85400
C362        C  0.78692866  0.53842805  0.33555474    -0.54800
C363        C  0.79118110  0.54187796  0.37668697     0.08300
C364        C  0.77072675  0.50635464  0.40110947     0.19300
C365        C  0.78622317  0.46563068  0.34215807    -0.55600
C366        C  0.79055444  0.46881640  0.38301925     0.08400
C367        C  0.72280877  0.50134672  0.34574507    -0.55100
C368        C  0.72626884  0.50441082  0.38665995     0.09000
H369        H  0.80135655  0.55912705  0.31346966     0.13500
H370        H  0.77322083  0.50793546  0.43456247    -0.00700
H371        H  0.80139278  0.44216149  0.32570432     0.13800
H372        H  0.69359587  0.49840726  0.33109767     0.13600
C373        C  0.22817510  0.52032343  0.31895158     0.85400
C374        C  0.20520838  0.48279681  0.33624849    -0.54800
C375        C  0.19879694  0.48219522  0.37735265     0.08300
C376        C  0.21619200  0.52044510  0.39751217     0.19300
C377        C  0.20228227  0.55534071  0.33361742    -0.55600
C378        C  0.19568858  0.55528185  0.37445670     0.08400
C379        C  0.26737078  0.52329077  0.34265617    -0.55100
C380        C  0.26162888  0.52369229  0.38377693     0.09000
H381        H  0.19211939  0.46027601  0.31663120     0.13500
H382        H  0.21151132  0.52106439  0.43091677    -0.00700
H383        H  0.18687275  0.57625927  0.31370423     0.13800
H384        H  0.29723790  0.52385144  0.32801171     0.13600
C385        C  0.16987392  0.01249738  0.26474237     0.85400
C386        C  0.15863900  0.04765634  0.29221910    -0.54800
C387        C  0.11776352  0.05178466  0.29880241     0.08300
C388        C  0.09186790  0.01948997  0.27716936     0.19300
C389        C  0.14933966  0.97565413  0.28610127    -0.55600
C390        C  0.10886776  0.97930625  0.29315758     0.08400
C391        C  0.14647182  0.01943199  0.22590446    -0.55100
C392        C  0.10561966  0.02301500  0.23183054     0.09000
H393        H  0.18144733  0.06598167  0.30709065     0.13500
H394        H  0.05853185  0.02177673  0.28178596    -0.00700
H395        H  0.16572471  0.95089993  0.29968909     0.13800
H396        H  0.16101045  0.01964755  0.19602765     0.13600
C397        C  0.16718165  0.00305554  0.73275141     0.85400
C398        C  0.14805714  0.96724848  0.71060141    -0.54800
C399        C  0.10719749  0.96934536  0.70616107     0.08300
C400        C  0.08836566  0.00707259  0.72511962     0.19300
C401        C  0.15354994  0.03988784  0.70812922    -0.55600
C402        C  0.11238418  0.04242578  0.70396026     0.08400
C403        C  0.14401063  0.00466100  0.77309199    -0.55100
C404        C  0.10294393  0.00679897  0.76962928     0.09000
H405        H  0.16515761  0.94443185  0.69506580     0.13500
H406        H  0.05485222  0.00817158  0.72232995    -0.00700
H407        H  0.17522213  0.06053694  0.69290035     0.13800
H408        H  0.15885728  0.00282891  0.80224458     0.13600
O409        O  0.73832596  0.63669949  0.96617703    -0.81200
O410        O  0.74212983  0.46895447  0.12813143    -0.82800
O411        O  0.67199274  0.57921262  0.08685222    -0.79800
O412        O  0.80361702  0.59174602  0.07776066    -0.78200
O413        O  0.85413033  0.55953030  0.04336652    -0.80000
O414        O  0.62086145  0.54915137  0.05115542    -0.80900
O415        O  0.74195369  0.53794173  0.12889645    -0.82200
O416        O  0.73662754  0.63394456  0.03551872    -0.82500
Eu417      Eu  0.73810448  0.56287689  0.05828860     2.39200
O418        O  0.77976570  0.50588582  0.05863404    -0.90000
O419        O  0.69616565  0.56491391  0.00086277    -0.93600
C420        C  0.73734251  0.65348538  0.00117105     1.01100
C421        C  0.74339476  0.50289159  0.14666704     1.00900
C422        C  0.63429443  0.57057692  0.08066071     1.00800
C423        C  0.84117887  0.58700267  0.06750423     0.98700
H424        H  0.68047034  0.50458486  0.08212500     0.28400
O425        O  0.69630114  0.50526286  0.05723543    -1.02400
H426        H  0.79554279  0.58920612  0.00080284     0.28500
O427        O  0.77950490  0.56452545  0.00041065    -1.04900
O428        O  0.73495778  0.37911490  0.03233240    -0.82200
O429        O  0.74157525  0.54580476  0.87176759    -0.81700
O430        O  0.62009947  0.46261435  0.05480772    -0.80100
O431        O  0.85345093  0.45759639  0.04415729    -0.83500
O432        O  0.85630663  0.56163640  0.95652793    -0.81300
O433        O  0.62337086  0.55167935  0.94953635    -0.80000
O434        O  0.67298397  0.43235944  0.91330817    -0.81500
O435        O  0.80398312  0.42421512  0.92243590    -0.83400
O436        O  0.62173902  0.46181679  0.94924279    -0.80200
O437        O  0.85434985  0.45746653  0.95633815    -0.82900
O438        O  0.66978417  0.42886233  0.08835103    -0.78600
O439        O  0.67457681  0.58781586  0.91624936    -0.78600
O440        O  0.80640848  0.59710485  0.92521109    -0.78300
O441        O  0.80160155  0.41977952  0.07435402    -0.81800
O442        O  0.73683611  0.38144252  0.96300176    -0.81200
O443        O  0.74075857  0.47684171  0.87211074    -0.79500
Eu444      Eu  0.73612048  0.44823911  0.05743959     2.39800
Eu445      Eu  0.73968893  0.56677528  0.94284971     2.39600
Eu446      Eu  0.65381705  0.50591687  0.00059791     2.38400
Eu447      Eu  0.82191023  0.50855330  0.99958335     2.39900
Eu448      Eu  0.73823618  0.45221235  0.94208107     2.39800
O449        O  0.78198685  0.50993213  0.94039250    -0.93900
O450        O  0.69421073  0.44762827  0.99984898    -0.92800
C451        C  0.73639916  0.36228105  0.99737785     1.01200
C452        C  0.74099261  0.51153657  0.85377889     1.00000
C453        C  0.63243980  0.43904526  0.08380836     0.99400
C454        C  0.83948178  0.42709028  0.06576506     1.01400
C455        C  0.84381554  0.59162653  0.93459154     1.00300
C456        C  0.63691918  0.57727201  0.92193574     0.99100
C457        C  0.63521481  0.44018648  0.91971348     0.99200
C458        C  0.84140057  0.42946026  0.93259587     1.01800
H459        H  0.68207323  0.50943077  0.91913454     0.29200
O460        O  0.69777242  0.50892482  0.94352907    -1.06100
H461        H  0.79346815  0.42778576  0.99920143     0.31200
O462        O  0.77780908  0.45198448  0.99961272    -1.08600
O463        O  0.24486592  0.63640096  0.96321381    -0.81200
O464        O  0.23456644  0.47320539  0.12835585    -0.82800
O465        O  0.17259029  0.59571130  0.06773181    -0.79800
O466        O  0.30309988  0.58181035  0.08599379    -0.78200
O467        O  0.35452348  0.54990450  0.05277392    -0.80000
O468        O  0.12134176  0.55848764  0.03968754    -0.80900
O469        O  0.23398312  0.54214384  0.12440869    -0.82200
O470        O  0.24148661  0.63495540  0.03251647    -0.82500
Eu471      Eu  0.23850960  0.56471192  0.05445491     2.39200
O472        O  0.27822268  0.50773299  0.05478827    -0.90000
O473        O  0.20007907  0.56327818  0.99665563    -0.93600
C474        C  0.24292309  0.65377916  0.99799317     1.01100
C475        C  0.23441331  0.50844298  0.14438352     1.00900
C476        C  0.13490583  0.58931925  0.05918208     1.00800
C477        C  0.34065702  0.57224896  0.08139891     0.98700
H478        H  0.17678836  0.50705959  0.08168214     0.28400
O479        O  0.19462538  0.50703074  0.05809988    -1.02400
H480        H  0.30186511  0.59106423  0.99806379     0.28500
O481        O  0.28436532  0.56726628  0.99803560    -1.04900
O482        O  0.24115113  0.37908052  0.03651145    -0.82200
O483        O  0.24187375  0.54189350  0.87023768    -0.81700
O484        O  0.12077900  0.45283990  0.03984925    -0.80100
O485        O  0.35455293  0.46468119  0.05177418    -0.83500
O486        O  0.35998366  0.54897336  0.94632317    -0.81300
O487        O  0.12723322  0.56177776  0.95565265    -0.80000
O488        O  0.17543044  0.42062223  0.92701373    -0.81500
O489        O  0.30497662  0.43364690  0.91469818    -0.83400
O490        O  0.12400422  0.45643253  0.95544095    -0.80200
O491        O  0.35625730  0.46593947  0.94785433    -0.82900
O492        O  0.17030940  0.41860552  0.07301639    -0.78600
O493        O  0.17893637  0.59580270  0.92092145    -0.78600
O494        O  0.31059969  0.57847211  0.90847835    -0.78300
O495        O  0.30194077  0.43593885  0.08962990    -0.81800
O496        O  0.24216863  0.38118535  0.96716629    -0.81200
O497        O  0.23994542  0.47288149  0.87268956    -0.79500
Eu498      Eu  0.23699307  0.44979951  0.05824479     2.39800
Eu499      Eu  0.24314354  0.56594393  0.93996273     2.39600
Eu500      Eu  0.15560166  0.50744616  0.99859969     2.38400
Eu501      Eu  0.32381472  0.50818634  0.99971376     2.39900
Eu502      Eu  0.24007130  0.45137220  0.94377051     2.39800
O503        O  0.28218046  0.50844250  0.94326591    -0.93900
O504        O  0.19754426  0.45148952  0.00055933    -0.92800
C505        C  0.24251092  0.36204468  0.00157324     1.01200
C506        C  0.24126927  0.50709482  0.85333928     1.00000
C507        C  0.13314470  0.42320201  0.06241459     0.99400
C508        C  0.33993503  0.44416110  0.08272348     1.01400
C509        C  0.34780398  0.56891238  0.91483204     1.00300
C510        C  0.14129584  0.59056909  0.93177967     0.99100
C511        C  0.13770783  0.42654115  0.93508356     0.99200
C512        C  0.34261814  0.44309925  0.91954855     1.01800
H513        H  0.18202932  0.50831069  0.91614213     0.29200
O514        O  0.19850572  0.50854141  0.94013628    -1.06100
H515        H  0.29867036  0.42577998  0.00151591     0.31200
O516        O  0.28180720  0.44931219  0.00120004    -1.08600
C517        C  0.99187759  0.74703183  0.82224527     0.85400
C518        C  0.02594255  0.71833004  0.83398661    -0.54800
C519        C  0.03006160  0.71179926  0.87485149     0.08300
C520        C  0.99797002  0.73427224  0.90031817     0.19300
C521        C  0.95383936  0.72723901  0.84242556    -0.55600
C522        C  0.95693925  0.71953218  0.88290547     0.08400
C523        C  0.00027541  0.78545741  0.84566443    -0.55100
C524        C  0.00331358  0.77948391  0.88657312     0.09000
H525        H  0.04385383  0.70304727  0.81127794     0.13500
H526        H  0.99983659  0.72962410  0.93363856    -0.00700
H527        H  0.92871426  0.71461561  0.82564604     0.13800
H528        H  0.00184426  0.81517156  0.83105332     0.13600
C529        C  0.99331137  0.27410952  0.82422647     0.85400
C530        C  0.95718255  0.30033986  0.83616754    -0.54800
C531        C  0.95314423  0.30745202  0.87690695     0.08300
C532        C  0.98674722  0.28704639  0.90206935     0.19300
C533        C  0.02998818  0.29670857  0.84170785    -0.55600
C534        C  0.02647481  0.30379982  0.88208219     0.08400
C535        C  0.98804280  0.23559379  0.85007427    -0.55100
C536        C  0.98517890  0.24185765  0.89068498     0.09000
H537        H  0.93821662  0.31408252  0.81340334     0.13500
H538        H  0.98468781  0.29174989  0.93524439    -0.00700
H539        H  0.05472382  0.31034986  0.82367402     0.13800
H540        H  0.98672372  0.20562385  0.83725521     0.13600
C541        C  0.49073163  0.68561279  0.75998345     0.85400
C542        C  0.45335274  0.66335980  0.77939238    -0.54800
C543        C  0.45865009  0.62325888  0.78692758     0.08300
C544        C  0.50054713  0.60843348  0.77288387     0.19300
C545        C  0.52518648  0.67569040  0.78921523    -0.55600
C546        C  0.53068737  0.63530180  0.79629295     0.08400
C547        C  0.50056757  0.66269516  0.72152131    -0.55100
C548        C  0.50571773  0.62234623  0.72780728     0.09000
H549        H  0.42708397  0.67823468  0.79185216     0.13500
H550        H  0.50402066  0.57541753  0.77730852    -0.00700
H551        H  0.54187865  0.69916023  0.80477126     0.13800
H552        H  0.50154310  0.67705968  0.69156254     0.13600
C553        C  0.49211768  0.68639200  0.23138272     0.85400
C554        C  0.52863521  0.66891226  0.20842350    -0.54800
C555        C  0.52566473  0.62831773  0.20315724     0.08300
C556        C  0.48706644  0.60819352  0.22196555     0.19300
C557        C  0.45548018  0.67234981  0.20669181    -0.55600
C558        C  0.45240305  0.63147456  0.20156111     0.08400
C559        C  0.48860403  0.66218991  0.27122209    -0.55100
C560        C  0.48660608  0.62143312  0.26670826     0.09000
H561        H  0.55260013  0.68680455  0.19328106     0.13500
H562        H  0.48530681  0.57494611  0.21844935    -0.00700
H563        H  0.43526587  0.69357954  0.19237636     0.13800
H564        H  0.48769028  0.67620779  0.30075243     0.13600
C565        C  0.97995911  0.27563242  0.18251692     0.85400
C566        C  0.01895408  0.29494526  0.16374869    -0.54800
C567        C  0.01941380  0.29877303  0.12238043     0.08300
C568        C  0.98028350  0.28157755  0.10328880     0.19300
C569        C  0.94622478  0.30215614  0.16544823    -0.55600
C570        C  0.94647606  0.30534599  0.12426559     0.08400
C571        C  0.97473917  0.23495036  0.16184715    -0.55100
C572        C  0.97463730  0.23751086  0.12041871     0.09000
H573        H  0.04247076  0.30826546  0.18227678     0.13500
H574        H  0.98022646  0.28412968  0.06963350    -0.00700
H575        H  0.92601335  0.32022397  0.18355173     0.13800
H576        H  0.97257665  0.20643677  0.17872587     0.13600
C577        C  0.99560417  0.73705146  0.17868847     0.85400
C578        C  0.95796702  0.71259609  0.16599238    -0.54800
C579        C  0.95403115  0.70856265  0.12497749     0.08300
C580        C  0.98875411  0.73007188  0.10010673     0.19300
C581        C  0.03112608  0.71518577  0.15824653    -0.55600
C582        C  0.02739779  0.71110065  0.11735929     0.08400
C583        C  0.99336321  0.77734189  0.15573351    -0.55100
C584        C  0.98966595  0.77418876  0.11486728     0.09000
H585        H  0.93792851  0.69733105  0.18820691     0.13500
H586        H  0.98649683  0.72775888  0.06668122    -0.00700
H587        H  0.05508218  0.70023002  0.17441829     0.13800
H588        H  0.99594627  0.80628191  0.17057280     0.13600
C589        C  0.48786326  0.32520377  0.76945756     0.85400
C590        C  0.52373930  0.34116408  0.79416157    -0.54800
C591        C  0.52440993  0.38193505  0.79881752     0.08300
C592        C  0.48910265  0.40356032  0.77779307     0.19300
C593        C  0.45059568  0.34116567  0.79218818    -0.55600
C594        C  0.45098137  0.38218520  0.79686244     0.08400
C595        C  0.49027372  0.34881430  0.72935971    -0.55100
C596        C  0.49064904  0.38961303  0.73317372     0.09000
H597        H  0.54504790  0.32175579  0.80948483     0.13500
H598        H  0.49023602  0.43687648  0.78075375    -0.00700
H599        H  0.42812640  0.32118938  0.80707030     0.13800
H600        H  0.49230436  0.33432975  0.70010506     0.13600
C601        C  0.47636787  0.32537276  0.23829475     0.85400
C602        C  0.44260608  0.34214747  0.21125921    -0.54800
C603        C  0.44489644  0.38288516  0.20527983     0.08300
C604        C  0.48034906  0.40371770  0.22677317     0.19300
C605        C  0.51576822  0.34105182  0.21710391    -0.55600
C606        C  0.51800170  0.38186647  0.21019049     0.08400
C607        C  0.47309872  0.34895166  0.27752384    -0.55100
C608        C  0.47495178  0.38993385  0.27187663     0.09000
H609        H  0.42040237  0.32430056  0.19525300     0.13500
H610        H  0.48177271  0.43702571  0.22205731    -0.00700
H611        H  0.53819493  0.32066792  0.20508964     0.13800
H612        H  0.47061679  0.33432966  0.30731425     0.13600
O613        O  0.56834403  0.41539657  0.44095215    -0.81200
O614        O  0.45218645  0.48759351  0.62847229    -0.82800
O615        O  0.58610508  0.44880387  0.57268759    -0.79800
O616        O  0.47455974  0.37920615  0.54225933    -0.78200
O617        O  0.42316899  0.39171787  0.49813059    -0.80000
O618        O  0.60973916  0.51365154  0.56077885    -0.80900
O619        O  0.49659573  0.43727403  0.61460931    -0.82200
O620        O  0.55509399  0.39109664  0.50559393    -0.82500
Eu621      Eu  0.51734158  0.44137971  0.54272015     2.39200
O622        O  0.44965447  0.46383841  0.54303676    -0.90000
O623        O  0.55827152  0.48414059  0.50053894    -0.93600
C624        C  0.57016918  0.38787797  0.46949878     1.01100
C625        C  0.47294035  0.45640886  0.63891445     1.00900
C626        C  0.61360019  0.47732488  0.57459706     1.00800
C627        C  0.44309610  0.36826699  0.52203247     0.98700
H628        H  0.52726950  0.50728455  0.59341647     0.28400
O629        O  0.51663879  0.50771739  0.56633779    -1.02400
H630        H  0.49283068  0.41375340  0.46525977     0.28500
O631        O  0.49313897  0.44077298  0.47573233    -1.04900
O632        O  0.41787418  0.59908854  0.55588287    -0.82200
O633        O  0.53061363  0.52452530  0.37004067    -0.81700
O634        O  0.55028754  0.58185224  0.59280771    -0.80100
O635        O  0.36323055  0.46719268  0.51870423    -0.83500
O636        O  0.43378067  0.43335766  0.40691841    -0.81300
O637        O  0.62158719  0.54697186  0.48285011    -0.80000
O638        O  0.50782840  0.63523051  0.46176896    -0.81500
O639        O  0.39835301  0.56219428  0.42537413    -0.83400
O640        O  0.55926078  0.62256133  0.50572772    -0.80200
O641        O  0.37348613  0.49802432  0.43884740    -0.82900
O642        O  0.48533194  0.56906896  0.61676841    -0.78600
O643        O  0.60748927  0.50346308  0.43166185    -0.78600
O644        O  0.49863051  0.44591804  0.38253854    -0.78300
O645        O  0.37745676  0.51088984  0.56978089    -0.81800
O646        O  0.42823460  0.62151274  0.49016279    -0.81200
O647        O  0.48611221  0.57451946  0.38436181    -0.79500
Eu648      Eu  0.44932469  0.53102843  0.56603807     2.39800
Eu649      Eu  0.53556431  0.48275491  0.43354579     2.39600
Eu650      Eu  0.55814510  0.55057758  0.52450104     2.38400
Eu651      Eu  0.42591505  0.46301987  0.47582019     2.39900
Eu652      Eu  0.46710404  0.57135104  0.45620735     2.39800
O653        O  0.46809448  0.50491329  0.43360383    -0.93900
O654        O  0.49093589  0.57240187  0.52312738    -0.92800
C655        C  0.41459074  0.62563476  0.52653395     1.01200
C656        C  0.50896329  0.55512258  0.35966596     1.00000
C657        C  0.52158805  0.58376199  0.62025429     0.99400
C658        C  0.35292598  0.48813378  0.54983392     1.01400
C659        C  0.46222131  0.43155802  0.37920425     1.00300
C660        C  0.63206670  0.52611182  0.45173389     0.99100
C661        C  0.53860925  0.64648443  0.48304315     0.99200
C662        C  0.37033291  0.53401403  0.42390488     1.01800
H663        H  0.55225619  0.56749881  0.43930564     0.29200
O664        O  0.53524563  0.55004235  0.45658975    -1.06100
H665        H  0.39896899  0.54013935  0.49976486     0.31200
O666        O  0.42606462  0.52969374  0.49938186    -1.08600
O667        O  0.08088614  0.93141665  0.06020032    -0.81200
O668        O  0.00619050  0.04825998  0.87461050    -0.82800
O669        O  0.04565381  0.91527519  0.92868033    -0.79800
O670        O  0.11772021  0.02592328  0.96523395    -0.78200
O671        O  0.10360626  0.07778285  0.00776106    -0.80000
O672        O  0.98058983  0.89130350  0.94079525    -0.80900
O673        O  0.05786897  0.00527379  0.88862242    -0.82200
O674        O  0.10533008  0.94519635  0.99571912    -0.82500
Eu675      Eu  0.05433679  0.98357343  0.96012551     2.39200
O676        O  0.03101095  0.05081495  0.96064117    -0.90000
O677        O  0.01138448  0.94164759  0.00146151    -0.93600
C678        C  0.10864592  0.92983062  0.03165540     1.01100
C679        C  0.03781570  0.02802524  0.86418910     1.00900
C680        C  0.01696158  0.88777698  0.92644314     1.00800
C681        C  0.12824121  0.05749204  0.98551154     0.98700
H682        H  0.98770631  0.97454849  0.90974978     0.28400
O683        O  0.98733290  0.98482699  0.93689096    -1.02400
H684        H  0.08145320  0.00701836  0.03778886     0.28500
O685        O  0.05435062  0.00698582  0.02717979    -1.04900
O686        O  0.89351766  0.08009816  0.94590877    -0.82200
O687        O  0.97022583  0.96769002  0.13145231    -0.81700
O688        O  0.91313833  0.95157672  0.90869917    -0.80100
O689        O  0.02694921  0.13657872  0.98567473    -0.83500
O690        O  0.06341516  0.06375350  0.09619567    -0.81300
O691        O  0.94624535  0.87967281  0.01988280    -0.80000
O692        O  0.85857521  0.99093198  0.04206224    -0.81500
O693        O  0.93183495  0.10075297  0.08028828    -0.83400
O694        O  0.87218174  0.94081235  0.99730664    -0.80200
O695        O  0.99730004  0.12375244  0.06863634    -0.82900
O696        O  0.92579566  0.01636430  0.88528050    -0.78600
O697        O  0.99066008  0.89283456  0.07078070    -0.78600
O698        O  0.05104265  0.99898501  0.11993689    -0.78300
O699        O  0.98299637  0.12340259  0.93427516    -0.81800
O700        O  0.87006213  0.06925567  0.01122762    -0.81200
O701        O  0.91984622  0.01266994  0.11895239    -0.79500
Eu702      Eu  0.96323203  0.05151237  0.93743527     2.39800
Eu703      Eu  0.01271077  0.96392937  0.06854499     2.39600
Eu704      Eu  0.94419547  0.94274442  0.97767208     2.38400
Eu705      Eu  0.03152799  0.07367830  0.02822482     2.39900
Eu706      Eu  0.92221899  0.03296275  0.04715460     2.39800
O707        O  0.98945793  0.03080022  0.06943355    -0.93900
O708        O  0.92182146  0.00950079  0.97998464    -0.92800
C709        C  0.86602861  0.08245283  0.97455844     1.01200
C710        C  0.93958958  0.98892529  0.14261196     1.00000
C711        C  0.91128163  0.98028269  0.88125804     0.99400
C712        C  0.00610116  0.14743616  0.95446740     1.01400
C713        C  0.06576962  0.03504373  0.12345776     1.00300
C714        C  0.96711500  0.86887325  0.05103397     0.99100
C715        C  0.84779725  0.96037516  0.02041939     0.99200
C716        C  0.96112573  0.12759911  0.08332965     1.01800
H717        H  0.92749324  0.94821352  0.06268102     0.29200
O718        O  0.94492823  0.96544143  0.04554886    -1.06100
H719        H  0.95372280  0.10158289  0.00465642     0.31200
O720        O  0.96417504  0.07461211  0.00450210    -1.08600
C721        C  0.45351034  0.41002289  0.34131873    -0.17500
C722        C  0.47508382  0.41788816  0.30655725    -0.32700
H723        H  0.43089432  0.38560871  0.34264038     0.11500
H724        H  0.49528692  0.44426850  0.30418375     0.12100
C725        C  0.46943746  0.44087511  0.68162598    -0.17500
C726        C  0.49723286  0.41544530  0.69637260    -0.32700
H727        H  0.44308555  0.44836435  0.70010278     0.11500
H728        H  0.52290334  0.40755558  0.67711545     0.12100
C729        C  0.96426935  0.82611418  0.06589476    -0.17500
C730        C  0.99392713  0.81120636  0.08913917    -0.32700
H731        H  0.93735641  0.80781180  0.05978017     0.11500
H732        H  0.02030574  0.83030544  0.09527749     0.12100
C733        C  0.97354179  0.20081269  0.09471251    -0.17500
C734        C  0.95380692  0.16558717  0.10558030    -0.32700
H735        H  0.99106491  0.20251437  0.06643821     0.11500
H736        H  0.93346791  0.16429145  0.13193687     0.12100
C737        C  0.48133185  0.59481717  0.30305181    -0.17500
C738        C  0.51032559  0.57003287  0.31670418    -0.32700
H739        H  0.45606943  0.60203362  0.32313771     0.11500
H740        H  0.53624506  0.56320174  0.29733596     0.12100
C741        C  0.50991827  0.59444331  0.69336179    -0.17500
C742        C  0.52961380  0.60526913  0.65824073    -0.32700
H743        H  0.49315513  0.56581183  0.69569389     0.11500
H744        H  0.54896719  0.63227728  0.65661172     0.12100
C745        C  0.97865938  0.20677080  0.91879535    -0.17500
C746        C  0.00904915  0.19028646  0.93996571    -0.32700
H747        H  0.95087537  0.18910094  0.91465993     0.11500
H748        H  0.03729636  0.20725284  0.94386366     0.12100
C749        C  0.00607432  0.81427996  0.91467721    -0.17500
C750        C  0.02512324  0.84996425  0.90436117    -0.32700
H751        H  0.98921924  0.81142806  0.94328923     0.11500
H752        H  0.04466535  0.85215970  0.87743779     0.12100
C753        C  0.12325303  0.35784065  0.90869772    -0.14400
C754        C  0.10876694  0.39515765  0.92192520     0.07700
C755        C  0.06673698  0.40083325  0.92477801    -0.14400
C756        C  0.03978143  0.37017592  0.91356074    -0.14400
C757        C  0.05430833  0.33309064  0.90048915     0.07700
C758        C  0.09621523  0.32713271  0.89803394    -0.14400
H759        H  0.15551496  0.35220532  0.90662519     0.11700
H760        H  0.05470655  0.42921718  0.93474924     0.11700
H761        H  0.00785312  0.37643263  0.91285646     0.11700
H762        H  0.10794488  0.29904519  0.88687624     0.11700
C763        C  0.06477615  0.38674416  0.05925840    -0.14400
C764        C  0.10372285  0.39058259  0.07593597     0.07700
C765        C  0.11609993  0.36050339  0.10357893    -0.14400
C766        C  0.08968947  0.32894591  0.11600626    -0.14400
C767        C  0.04992897  0.32641120  0.10140884     0.07700
C768        C  0.03831230  0.35467241  0.07155653    -0.14400
H769        H  0.05473398  0.40848774  0.03680377     0.11700
H770        H  0.14620957  0.36152425  0.11627589     0.11700
H771        H  0.10002932  0.30710717  0.13822180     0.11700
H772        H  0.00824654  0.35308040  0.05893068     0.11700
C773        C  0.06459088  0.61186772  0.07832682    -0.14400
C774        C  0.10601271  0.62092997  0.07107299     0.07700
C775        C  0.12003946  0.66121758  0.07456838    -0.14400
C776        C  0.09367749  0.69136384  0.08686033    -0.14400
C777        C  0.05277789  0.68188040  0.09574952     0.07700
C778        C  0.03835439  0.64201389  0.09115622    -0.14400
H779        H  0.05289132  0.58121688  0.07577640     0.11700
H780        H  0.15163113  0.66936854  0.06827935     0.11700
H781        H  0.10551413  0.72177267  0.09092943     0.11700
H782        H  0.00736744  0.63366715  0.09971001     0.11700
C783        C  0.05377556  0.66289176  0.92908931    -0.14400
C784        C  0.06022259  0.68284023  0.89131386     0.07700
C785        C  0.09495035  0.67320389  0.86805044    -0.14400
C786        C  0.12087294  0.64292545  0.88090702    -0.14400
C787        C  0.11275660  0.62126876  0.91728284     0.07700
C788        C  0.07933991  0.63197782  0.94159451    -0.14400
H789        H  0.02859036  0.67027175  0.94885302     0.11700
H790        H  0.10246864  0.68907345  0.83979497     0.11700
H791        H  0.14718133  0.63624978  0.86216919     0.11700
H792        H  0.07340095  0.61694260  0.97068955     0.11700
C793        C  0.40877274  0.44731113  0.88041006    -0.14400
C794        C  0.37104478  0.42792587  0.88858266     0.07700
C795        C  0.35821134  0.39650681  0.86346479    -0.14400
C796        C  0.38307882  0.38366842  0.83196965    -0.14400
C797        C  0.42179754  0.40141189  0.82503575     0.07700
C798        C  0.43374189  0.43445035  0.84857599    -0.14400
H799        H  0.41874780  0.47265994  0.89824750     0.11700
H800        H  0.32879398  0.38161849  0.86813468     0.11700
H801        H  0.37209019  0.35926233  0.81346022     0.11700
H802        H  0.46286903  0.44961629  0.84351627     0.11700
C803        C  0.41855803  0.58886553  0.89047893    -0.14400
C804        C  0.37776429  0.57978839  0.88211468     0.07700
C805        C  0.36528035  0.58051491  0.84145147    -0.14400
C806        C  0.39252913  0.59181616  0.80997402    -0.14400
C807        C  0.43278686  0.60252988  0.81849781     0.07700
C808        C  0.44563776  0.60085706  0.85895738    -0.14400
H809        H  0.42898014  0.58851993  0.92146274     0.11700
H810        H  0.33417233  0.57278997  0.83401081     0.11700
H811        H  0.38181000  0.59374302  0.77912834     0.11700
H812        H  0.47588170  0.61113845  0.86654228     0.11700
C813        C  0.43176703  0.57983609  0.15009583    -0.14400
C814        C  0.42219221  0.61344769  0.17356822     0.07700
C815        C  0.38473928  0.63209105  0.16748942    -0.14400
C816        C  0.35857744  0.61889145  0.13742705    -0.14400
C817        C  0.36923751  0.58684285  0.11236794     0.07700
C818        C  0.40587222  0.56704904  0.11941129    -0.14400
H819        H  0.45978629  0.56402525  0.15441601     0.11700
H820        H  0.37562204  0.65719428  0.18582530     0.11700
H821        H  0.33011340  0.63417611  0.13353613     0.11700
H822        H  0.41433340  0.54138429  0.10150386     0.11700
C823        C  0.35599260  0.43081578  0.15508995    -0.14400
C824        C  0.36813411  0.43031157  0.11390930     0.07700
C825        C  0.40683954  0.41662456  0.10337027    -0.14400
C826        C  0.43239997  0.40222001  0.13353029    -0.14400
C827        C  0.42004628  0.40261400  0.17451482     0.07700
C828        C  0.38187042  0.41714261  0.18522287    -0.14400
H829        H  0.32638885  0.44173319  0.16393621     0.11700
H830        H  0.41668165  0.41582013  0.07185323     0.11700
H831        H  0.46139888  0.38981598  0.12487114     0.11700
H832        H  0.37175091  0.41688384  0.21670896     0.11700
C833        C  0.56416063  0.44189335  0.12013645    -0.14400
C834        C  0.60268045  0.42459121  0.11597745     0.07700
C835        C  0.61421677  0.39590745  0.14549229    -0.14400
C836        C  0.58761547  0.38382985  0.17727047    -0.14400
C837        C  0.54858731  0.39999960  0.18062055     0.07700
C838        C  0.53756442  0.42993289  0.15222908    -0.14400
H839        H  0.55461074  0.46487944  0.09873022     0.11700
H840        H  0.64391588  0.38252025  0.14404061     0.11700
H841        H  0.59747490  0.36127588  0.19898980     0.11700
H842        H  0.50786843  0.44321037  0.15387422     0.11700
C843        C  0.61910935  0.59036970  0.15148456    -0.14400
C844        C  0.60535622  0.58418795  0.11180035     0.07700
C845        C  0.56432101  0.59000491  0.10324295    -0.14400
C846        C  0.53790694  0.60321099  0.13361574    -0.14400
C847        C  0.55186052  0.60920667  0.17308073     0.07700
C848        C  0.59254951  0.60282488  0.18184785    -0.14400
H849        H  0.65051915  0.58551673  0.15915534     0.11700
H850        H  0.55306816  0.58566110  0.07293168     0.11700
H851        H  0.50714876  0.61051942  0.12581462     0.11700
H852        H  0.60389077  0.60836474  0.21193084     0.11700
C853        C  0.61656785  0.63060829  0.87197074    -0.14400
C854        C  0.60806651  0.59362295  0.89234107     0.07700
C855        C  0.57487898  0.56981661  0.88012865    -0.14400
C856        C  0.55074459  0.58262782  0.84809650    -0.14400
C857        C  0.55865215  0.62000185  0.82802611     0.07700
C858        C  0.59215525  0.64368062  0.84028616    -0.14400
H859        H  0.64248514  0.64923330  0.88021956     0.11700
H860        H  0.56830950  0.54062519  0.89451983     0.11700
H861        H  0.52538150  0.56337791  0.83993725     0.11700
H862        H  0.60009013  0.67212971  0.82511924     0.11700
C863        C  0.56425964  0.42175806  0.89766682    -0.14400
C864        C  0.60617679  0.42527333  0.88910273     0.07700
C865        C  0.62044501  0.41628976  0.84972740    -0.14400
C866        C  0.59353492  0.40405526  0.81979141    -0.14400
C867        C  0.55182491  0.40054240  0.82848763     0.07700
C868        C  0.53744353  0.40886316  0.86777222    -0.14400
H869        H  0.55234690  0.42811284  0.92765971     0.11700
H870        H  0.65250402  0.41905850  0.84184467     0.11700
H871        H  0.60531812  0.39665850  0.78999968     0.11700
H872        H  0.50573213  0.40385429  0.87585612     0.11700
C873        C  0.90896489  0.40588841  0.08680983    -0.14400
C874        C  0.86809470  0.39620458  0.07941555     0.07700
C875        C  0.85438252  0.35570070  0.08366037    -0.14400
C876        C  0.88075694  0.32559458  0.09582495    -0.14400
C877        C  0.92119783  0.33544513  0.10408152     0.07700
C878        C  0.93513770  0.37575698  0.09988060    -0.14400
H879        H  0.92023985  0.43680616  0.08379763     0.11700
H880        H  0.82314353  0.34722263  0.07750563     0.11700
H881        H  0.86932192  0.29482688  0.10003403     0.11700
H882        H  0.96578655  0.38415344  0.10821336     0.11700
C883        C  0.86249495  0.37719241  0.88300635    -0.14400
C884        C  0.87063478  0.39927240  0.91795044     0.07700
C885        C  0.90424583  0.38874747  0.94129642    -0.14400
C886        C  0.92956068  0.35739535  0.92946369    -0.14400
C887        C  0.92294352  0.33681635  0.89308226     0.07700
C888        C  0.88825663  0.34656867  0.87069920    -0.14400
H889        H  0.83608681  0.38361784  0.86504157     0.11700
H890        H  0.91035777  0.40403083  0.96936131     0.11700
H891        H  0.95459069  0.35003437  0.94877455     0.11700
H892        H  0.88053885  0.33044600  0.84361173     0.11700
C893        C  0.91559668  0.61909086  0.92512010    -0.14400
C894        C  0.87349916  0.62409196  0.92177833     0.07700
C895        C  0.85939221  0.66204270  0.90891547    -0.14400
C896        C  0.88660583  0.69390254  0.89920582    -0.14400
C897        C  0.92865396  0.68878016  0.90199780     0.07700
C898        C  0.94284631  0.65097342  0.91477796    -0.14400
H899        H  0.92751087  0.59032959  0.93486822     0.11700
H900        H  0.82716230  0.66734609  0.90648486     0.11700
H901        H  0.87487707  0.72234065  0.88823739     0.11700
H902        H  0.97490809  0.64520690  0.91455343     0.11700
C903        C  0.86104033  0.63968529  0.11698377    -0.14400
C904        C  0.87067449  0.61724255  0.08255894     0.07700
C905        C  0.90632932  0.62734276  0.06013248    -0.14400
C906        C  0.93226394  0.65863720  0.07247118    -0.14400
C907        C  0.92353902  0.67991354  0.10798260     0.07700
C908        C  0.88704563  0.67064622  0.12946593    -0.14400
H909        H  0.83327515  0.63332387  0.13435624     0.11700
H910        H  0.91384085  0.61151146  0.03264497     0.11700
H911        H  0.95971257  0.66507735  0.05475648     0.11700
H912        H  0.87850116  0.68716548  0.15618267     0.11700
C913        C  0.07721059  0.00200469  0.80676140    -0.17500
C914        C  0.05269614  0.03064481  0.82123365    -0.32700
H915        H  0.08449112  0.97650431  0.82640351     0.11500
H916        H  0.04546224  0.05670376  0.80237973     0.12100
C917        C  0.08821085  0.04308587  0.16107038    -0.17500
C918        C  0.07754187  0.02484189  0.19699756    -0.32700
H919        H  0.11537447  0.06230103  0.15868239     0.11500
H920        H  0.04871219  0.00833300  0.20011685     0.12100
C921        C  0.24450835  0.48149885  0.25544903    -0.14400
C922        C  0.23523188  0.51849543  0.27349748     0.07700
C923        C  0.23083476  0.55278007  0.24836009    -0.14400
C924        C  0.23043763  0.54917454  0.20655216    -0.14400
C925        C  0.23550980  0.51140506  0.18871412     0.07700
C926        C  0.24379796  0.47776008  0.21341868    -0.14400
H927        H  0.25061093  0.45498912  0.27393705     0.11700
H928        H  0.22727910  0.58252517  0.26061289     0.11700
H929        H  0.22566306  0.57615973  0.18828069     0.11700
H930        H  0.24954786  0.44863520  0.20037524     0.11700
C931        C  0.33229419  0.54283632  0.40244043    -0.17500
C932        C  0.29661689  0.52328351  0.41173387    -0.32700
H933        H  0.33411767  0.56423855  0.37700922     0.11500
H934        H  0.29374500  0.50444002  0.43906536     0.12100
C935        C  0.76685500  0.46578157  0.25303724    -0.14400
C936        C  0.75745117  0.49953133  0.27658398     0.07700
C937        C  0.74131949  0.53354272  0.25682472    -0.14400
C938        C  0.73673897  0.53471984  0.21476639    -0.14400
C939        C  0.74723441  0.50145544  0.19136339     0.07700
C940        C  0.76178910  0.46680637  0.21103601    -0.14400
H941        H  0.77758634  0.43811095  0.26636175     0.11700
H942        H  0.73277735  0.55963431  0.27405994     0.11700
H943        H  0.72479269  0.56164954  0.20060340     0.11700
H944        H  0.76979325  0.44050096  0.19386978     0.11700
C945        C  0.67516350  0.52818080  0.43720875    -0.17500
C946        C  0.68929527  0.49951583  0.41257691    -0.32700
H947        H  0.69427981  0.55411983  0.44442261     0.11500
H948        H  0.66941952  0.47413223  0.40527869     0.12100
C949        C  0.90083377  0.99221339  0.80748743    -0.17500
C950        C  0.89010190  0.97234601  0.84265419    -0.32700
H951        H  0.92895116  0.01005295  0.80574025     0.11500
H952        H  0.86376210  0.95197059  0.84364550     0.12100
C953        C  0.90773792  0.01723801  0.20328438    -0.17500
C954        C  0.92497645  0.98555009  0.18537213    -0.32700
H955        H  0.90748374  0.04620162  0.18716995     0.11500
H956        H  0.92521153  0.95631763  0.20094467     0.12100
C957        C  0.23290639  0.46927303  0.74658799    -0.14400
C958        C  0.23484391  0.50565291  0.72362861     0.07700
C959        C  0.24470790  0.54165653  0.74345902    -0.14400
C960        C  0.24742828  0.54210660  0.78557168    -0.14400
C961        C  0.24161769  0.50628936  0.80866859     0.07700
C962        C  0.23586423  0.46966336  0.78864628    -0.14400
H963        H  0.22910373  0.44028503  0.73259005     0.11700
H964        H  0.24876541  0.56984076  0.72645397     0.11700
H965        H  0.25340802  0.57064721  0.80002152     0.11700
H966        H  0.23284753  0.44126351  0.80546249     0.11700
C967        C  0.29441921  0.51793940  0.58394173    -0.17500
C968        C  0.31001877  0.48639986  0.56429444    -0.32700
H969        H  0.31280010  0.54537740  0.58681098     0.11500
H970        H  0.29233140  0.45851241  0.56162935     0.12100
C971        C  0.74739234  0.54665943  0.74389778    -0.14400
C972        C  0.74480545  0.50963715  0.72355594     0.07700
C973        C  0.73563307  0.47427489  0.74650603    -0.14400
C974        C  0.73401508  0.47504504  0.78870203    -0.14400
C975        C  0.74024931  0.51149297  0.80903645     0.07700
C976        C  0.74545037  0.54748637  0.78618984    -0.14400
H977        H  0.75098485  0.57523360  0.72778385     0.11700
H978        H  0.73155687  0.44557096  0.73176050     0.11700
H979        H  0.72849545  0.44685234  0.80535043     0.11700
H980        H  0.74879155  0.57626090  0.80094501     0.11700
C981        C  0.68696720  0.48893785  0.58549526    -0.17500
C982        C  0.65185929  0.46888116  0.59565243    -0.32700
H983        H  0.68924109  0.50667677  0.55739845     0.11500
H984        H  0.65041265  0.44867016  0.62205744     0.12100
C985        C  0.02096464  0.25706395  0.28885552    -0.14400
C986        C  0.98863339  0.26920442  0.31367693     0.07700
C987        C  0.95243903  0.28141262  0.29573835    -0.14400
C988        C  0.94888820  0.28249415  0.25378568    -0.14400
C989        C  0.98172214  0.27190811  0.22850016     0.07700
C990        C  0.01726197  0.25774899  0.24672563    -0.14400
H991        H  0.04883506  0.24651242  0.30197643     0.11700
H992        H  0.92661504  0.29018564  0.31415847     0.11700
H993        H  0.91993852  0.29095754  0.24182549     0.11700
H994        H  0.04259622  0.24795333  0.22823678     0.11700
C995        C  0.03177545  0.26703680  0.71400529    -0.14400
C996        C  0.99544615  0.25831923  0.69407863     0.07700
C997        C  0.95977647  0.25043449  0.71718622    -0.14400
C998        C  0.95999836  0.25362256  0.75926922    -0.14400
C999        C  0.99554617  0.26589472  0.77906995     0.07700
C1000       C  0.03194529  0.27043322  0.75601733    -0.14400
H1001       H  0.06006133  0.27205662  0.69711147     0.11700
H1002       H  0.93152219  0.24236268  0.70275116     0.11700
H1003       H  0.93190231  0.24800710  0.77631339     0.11700
H1004       H  0.06085568  0.27651103  0.76977408     0.11700
C1005       C  0.88815643  0.43265747  0.42775626    -0.14400
C1006       C  0.88128167  0.39070529  0.42856649     0.07700
C1007       C  0.84266378  0.37523209  0.41814042    -0.14400
C1008       C  0.81208412  0.40102860  0.40606199    -0.14400
C1009       C  0.81935755  0.44278803  0.40426311     0.07700
C1010       C  0.85751950  0.45844530  0.41518813    -0.14400
H1011       H  0.91751341  0.44540807  0.43552478     0.11700
H1012       H  0.83600812  0.34303667  0.41906263     0.10900
H1013       H  0.78315894  0.38835173  0.39677264     0.11700
H1014       H  0.86454498  0.49031610  0.41163075     0.11700
C1015       C  0.83927729  0.44367773  0.57418827    -0.14400
C1016       C  0.81968204  0.43758660  0.61222659     0.07700
C1017       C  0.83122822  0.40451091  0.63672726    -0.14400
C1018       C  0.86267622  0.37966678  0.62445342    -0.14400
C1019       C  0.88345058  0.38724636  0.58744968     0.07700
C1020       C  0.87120254  0.41919692  0.56223743    -0.14400
H1021       H  0.83095145  0.46787332  0.55374002     0.11700
H1022       H  0.81592718  0.39738464  0.66539427     0.11700
H1023       H  0.87070469  0.35439861  0.64388536     0.11700
H1024       H  0.88564121  0.42462434  0.53274082     0.11700
C1025       C  0.14505334  0.37397103  0.59798370    -0.14400
C1026       C  0.10849611  0.38749589  0.58140820     0.07700
C1027       C  0.10332342  0.42900923  0.57492742    -0.14400
C1028       C  0.13342775  0.45651748  0.58600065    -0.14400
C1029       C  0.16952138  0.44314015  0.60287796     0.07700
C1030       C  0.17530962  0.40165080  0.60865781    -0.14400
H1031       H  0.15032170  0.34207706  0.60283815     0.11700
H1032       H  0.07564171  0.44038251  0.56213491     0.11700
H1033       H  0.12717818  0.48817920  0.58381810     0.11700
H1034       H  0.20274639  0.39084090  0.62249094     0.11700
C1035       C  0.13556885  0.38589794  0.39317988    -0.14400
C1036       C  0.10977372  0.39547635  0.42582515     0.07700
C1037       C  0.11684968  0.43197915  0.44592031    -0.14400
C1038       C  0.14784924  0.45906131  0.43226934    -0.14400
C1039       C  0.17157155  0.45071328  0.39756168     0.07700
C1040       C  0.16608054  0.41290786  0.37945956    -0.14400
H1041       H  0.13194782  0.35752668  0.37773859     0.11700
H1042       H  0.09861599  0.43949590  0.47229275     0.11700
H1043       H  0.15219258  0.48689033  0.44832361     0.11700
H1044       H  0.18501864  0.40411200  0.35409950     0.11700
C1045       C  0.10353391  0.13564361  0.63729754    -0.14400
C1046       C  0.07072580  0.12512894  0.61270545     0.07700
C1047       C  0.04892789  0.08886178  0.62104655    -0.14400
C1048       C  0.06058186  0.06307753  0.65271731    -0.14400
C1049       C  0.09484569  0.07265667  0.67580785     0.07700
C1050       C  0.11527264  0.10988305  0.66855143    -0.14400
H1051       H  0.12029839  0.16390716  0.63238468     0.11700
H1052       H  0.02253254  0.08075791  0.60355730     0.11700
H1053       H  0.04347909  0.03515985  0.65807003     0.11700
H1054       H  0.14082344  0.11902153  0.68671350     0.11700
C1055       C  0.91439133  0.08155910  0.61087718    -0.14400
C1056       C  0.91711565  0.12301092  0.61883267     0.07700
C1057       C  0.90945635  0.13587739  0.65868573    -0.14400
C1058       C  0.89820142  0.10812564  0.68954349    -0.14400
C1059       C  0.89459264  0.06690172  0.68139374     0.07700
C1060       C  0.90269357  0.05382217  0.64182174    -0.14400
H1061       H  0.91999709  0.07075724  0.58053030     0.11700
H1062       H  0.91191467  0.16754811  0.66607773     0.11700
H1063       H  0.89083767  0.11896210  0.71953562     0.11700
H1064       H  0.89768405  0.02257445  0.63421154     0.11700
C1065       C  0.92865492  0.09361397  0.38600382    -0.14400
C1066       C  0.91086496  0.13144542  0.39063171     0.07700
C1067       C  0.88095099  0.14329973  0.36315101    -0.14400
C1068       C  0.86791754  0.11721609  0.33299873    -0.14400
C1069       C  0.88482714  0.07882777  0.32918630     0.07700
C1070       C  0.91636967  0.06798437  0.35514172    -0.14400
H1071       H  0.95231840  0.08385112  0.40607975     0.11700
H1072       H  0.86723920  0.17263611  0.36514404     0.11700
H1073       H  0.84436154  0.12707662  0.31280641     0.11700
H1074       H  0.93089082  0.03919130  0.35263227     0.11700
C1075       C  0.05261971  0.09751516  0.38149105    -0.14400
C1076       C  0.07499937  0.13274487  0.39005739     0.07700
C1077       C  0.11024061  0.14247024  0.36690257    -0.14400
C1078       C  0.12341871  0.11685144  0.33652670    -0.14400
C1079       C  0.10145550  0.08106665  0.32832021     0.07700
C1080       C  0.06528543  0.07233714  0.35047527    -0.14400
H1081       H  0.02484766  0.08982021  0.39825340     0.11700
H1082       H  0.12770477  0.16989124  0.37231810     0.11700
H1083       H  0.15074062  0.12534592  0.31934410     0.11700
H1084       H  0.04704423  0.04559893  0.34476474     0.11700
C1085       C  0.96114595  0.76011530  0.28681645    -0.14400
C1086       C  0.99555268  0.75140994  0.30963923     0.07700
C1087       C  0.03102308  0.73922030  0.28941778    -0.14400
C1088       C  0.03179701  0.73476504  0.24736776    -0.14400
C1089       C  0.99697552  0.74239471  0.22444261     0.07700
C1090       C  0.96208673  0.75624060  0.24475338    -0.14400
H1091       H  0.93350973  0.77018963  0.30140322     0.11700
H1092       H  0.05821171  0.73271088  0.30614909     0.11700
H1093       H  0.06004730  0.72596651  0.23341343     0.11700
H1094       H  0.93512255  0.76347018  0.22795858     0.11700
C1095       C  0.95208519  0.75522312  0.71387888    -0.14400
C1096       C  0.98864567  0.75806840  0.69138698     0.07700
C1097       C  0.02544067  0.76265057  0.71193706    -0.14400
C1098       C  0.02581726  0.76153114  0.75414697    -0.14400
C1099       C  0.98963696  0.75451848  0.77677147     0.07700
C1100       C  0.95250836  0.75381716  0.75611550    -0.14400
H1101       H  0.92310152  0.75337547  0.69891173     0.11700
H1102       H  0.05412355  0.76643006  0.69548712     0.11700
H1103       H  0.05471524  0.76440148  0.76914475     0.11700
H1104       H  0.92354650  0.75214829  0.77205488     0.11700
C1105       C  0.09719110  0.59118932  0.41994208    -0.14400
C1106       C  0.10259315  0.63323778  0.41607427     0.07700
C1107       C  0.13949673  0.64922169  0.39944228    -0.14400
C1108       C  0.17036271  0.62376101  0.38742125    -0.14400
C1109       C  0.16510151  0.58189800  0.39191497     0.07700
C1110       C  0.12807837  0.56574397  0.40739699    -0.14400
H1111       H  0.06906383  0.57798709  0.43225715     0.11700
H1112       H  0.14492569  0.68151714  0.39617509     0.11700
H1113       H  0.19827679  0.63667805  0.37426354     0.11700
H1114       H  0.12233628  0.53356355  0.40824889     0.11700
C1115       C  0.12576219  0.63711604  0.61582293    -0.14400
C1116       C  0.10214262  0.62793118  0.58202833     0.07700
C1117       C  0.11158016  0.59353860  0.55972606    -0.14400
C1118       C  0.14322898  0.56845240  0.57159572    -0.14400
C1119       C  0.16483249  0.57587408  0.60727043     0.07700
C1120       C  0.15649620  0.61147558  0.62831314    -0.14400
H1121       H  0.12037699  0.66416765  0.63285587     0.11700
H1122       H  0.09526535  0.58663988  0.53238371     0.11700
H1123       H  0.15020352  0.54316874  0.55277838     0.11700
H1124       H  0.17372131  0.61984465  0.65459517     0.11700
C1125       C  0.83533949  0.63624995  0.58598349    -0.14400
C1126       C  0.87488792  0.62311557  0.57709108     0.07700
C1127       C  0.88168871  0.58139051  0.57648758    -0.14400
C1128       C  0.85010887  0.55361851  0.58646174    -0.14400
C1129       C  0.81093063  0.56691116  0.59619632     0.07700
C1130       C  0.80379945  0.60847997  0.59538030    -0.14400
H1131       H  0.82866495  0.66813284  0.58577215     0.11700
H1132       H  0.91166547  0.57026429  0.56952574     0.11700
H1133       H  0.85710377  0.52204480  0.58912016     0.11700
H1134       H  0.77408796  0.61949456  0.60368058     0.11700
C1135       C  0.85800278  0.63613112  0.38510173    -0.14400
C1136       C  0.88043298  0.62729789  0.41985580     0.07700
C1137       C  0.87016039  0.59231374  0.44299970    -0.14400
C1138       C  0.83920268  0.56587838  0.43063196    -0.14400
C1139       C  0.81864468  0.57326631  0.39422041     0.07700
C1140       C  0.82750635  0.60955184  0.37250937    -0.14400
H1141       H  0.86424416  0.66354840  0.36735769     0.11700
H1142       H  0.88570707  0.58563813  0.47096095     0.11700
H1143       H  0.83258129  0.53911858  0.44909848     0.11700
H1144       H  0.81117161  0.61745944  0.34540406     0.11700
C1145       C  0.07194488  0.93728706  0.39476379    -0.14400
C1146       C  0.06913935  0.89587806  0.38674851     0.07700
C1147       C  0.07537480  0.88303382  0.34669793    -0.14400
C1148       C  0.08516809  0.91085630  0.31552897    -0.14400
C1149       C  0.08885418  0.95204806  0.32367180     0.07700
C1150       C  0.08251615  0.96505373  0.36355491    -0.14400
H1151       H  0.06735940  0.94799427  0.42531001     0.11700
H1152       H  0.07270145  0.85136054  0.33936378     0.11700
H1153       H  0.09138957  0.90011743  0.28525498     0.11700
H1154       H  0.08817876  0.99618843  0.37115177     0.11700
C1155       C  0.90345389  0.88021958  0.35211659    -0.14400
C1156       C  0.91096390  0.89257194  0.39197622     0.07700
C1157       C  0.90604514  0.93323102  0.40174738    -0.14400
C1158       C  0.89296098  0.96075972  0.37230407    -0.14400
C1159       C  0.88614763  0.94828955  0.33251210     0.07700
C1160       C  0.89114545  0.90787760  0.32266743    -0.14400
H1161       H  0.90746956  0.84914631  0.34351384     0.11700
H1162       H  0.91132318  0.94344280  0.43225263     0.11700
H1163       H  0.88667583  0.99130849  0.38101352     0.11700
H1164       H  0.88491797  0.89767440  0.29233305     0.11700
C1165       C  0.93227476  0.92072676  0.62330827    -0.14400
C1166       C  0.90781564  0.88825360  0.61051365     0.07700
C1167       C  0.87017159  0.88052350  0.62997466    -0.14400
C1168       C  0.85670194  0.90520227  0.66097197    -0.14400
C1169       C  0.88039999  0.93858724  0.67327675     0.07700
C1170       C  0.91886621  0.94542374  0.65460075    -0.14400
H1171       H  0.96212624  0.92652263  0.60969175     0.11700
H1172       H  0.85113098  0.85513288  0.62133446     0.11700
H1173       H  0.82766644  0.89762772  0.67537148     0.11700
H1174       H  0.93841945  0.97033435  0.66319490     0.11700
C1175       C  0.07254501  0.93104370  0.60545893    -0.14400
C1176       C  0.06964507  0.88929098  0.61352867     0.07700
C1177       C  0.07548718  0.87483404  0.65346471    -0.14400
C1178       C  0.08439158  0.90148253  0.68449581    -0.14400
C1179       C  0.08772663  0.94307073  0.67629269     0.07700
C1180       C  0.08219924  0.95761525  0.63648795    -0.14400
H1181       H  0.06839951  0.94300635  0.57501707     0.11700
H1182       H  0.07289896  0.84284451  0.66087281     0.11700
H1183       H  0.09013697  0.88955813  0.71466596     0.11700
H1184       H  0.08763047  0.98916799  0.62883670     0.11700
C1185       C  0.24166453  0.78054743  0.54339680    -0.14400
C1186       C  0.26657527  0.76571131  0.51220906     0.07700
C1187       C  0.24795748  0.74883420  0.47807744    -0.14400
C1188       C  0.20589269  0.74966062  0.47380230    -0.14400
C1189       C  0.18157193  0.76619974  0.50425628     0.07700
C1190       C  0.19976896  0.78095938  0.53929919    -0.14400
H1191       H  0.25366592  0.79195255  0.57119615     0.11700
H1192       H  0.26626961  0.73632204  0.45395035     0.11700
H1193       H  0.19240326  0.73699214  0.44702340     0.11700
H1194       H  0.18153957  0.79313887  0.56367972     0.11700
C1195       C  0.40180070  0.69752243  0.51158704    -0.17500
C1196       C  0.39298807  0.66354056  0.53397218    -0.32700
H1197       H  0.42832799  0.69878228  0.49141680     0.11500
H1198       H  0.36855305  0.66318711  0.55659964     0.12100
C1199       C  0.24787078  0.24387232  0.46025925    -0.14400
C1200       C  0.27086570  0.24750632  0.49560483     0.07700
C1201       C  0.25073741  0.25830348  0.53179945    -0.14400
C1202       C  0.20845119  0.26123183  0.53353756    -0.14400
C1203       C  0.18541248  0.25499393  0.49867697     0.07700
C1204       C  0.20573898  0.24741766  0.46184849    -0.14400
H1205       H  0.26194972  0.23850334  0.43108494     0.11700
H1206       H  0.26767792  0.26315275  0.55921009     0.11700
H1207       H  0.19384027  0.26824103  0.56218594     0.11700
H1208       H  0.18901764  0.24351235  0.43416035     0.11700
C1209       C  0.41090311  0.30777619  0.49471929    -0.17500
C1210       C  0.42819892  0.32589818  0.52634940    -0.32700
H1211       H  0.41057451  0.32361960  0.46551048     0.11500
H1212       H  0.42873197  0.31071821  0.55588111     0.12100
C1213       C  0.74044238  0.25574393  0.95904569    -0.14400
C1214       C  0.73373722  0.23304414  0.99517498     0.07700
C1215       C  0.73415732  0.25327228  0.03233046    -0.14400
C1216       C  0.73565735  0.29521487  0.03300853    -0.14400
C1217       C  0.73786879  0.31791864  0.99663529     0.07700
C1218       C  0.74189515  0.29780169  0.95967987    -0.14400
H1219       H  0.74295715  0.24102775  0.93009544     0.11700
H1220       H  0.73297730  0.23705910  0.06113208     0.11700
H1221       H  0.73439405  0.30978220  0.06211300     0.11700
H1222       H  0.74538057  0.31446836  0.93115090     0.11700
C1223       C  0.79262089  0.09492164  0.98681285    -0.17500
C1224       C  0.82765682  0.10333367  0.96570946    -0.32700
H1225       H  0.79029204  0.06844190  0.00681489     0.11500
H1226       H  0.82884934  0.12798722  0.94342334     0.12100
C1227       C  0.26414156  0.25801077  0.96252776    -0.14400
C1228       C  0.25430442  0.23293023  0.99644754     0.07700
C1229       C  0.23865886  0.25094093  0.03171751    -0.14400
C1230       C  0.23481314  0.29280374  0.03372745    -0.14400
C1231       C  0.24567359  0.31764085  0.00011644     0.07700
C1232       C  0.25985286  0.29971416  0.96440664    -0.14400
H1233       H  0.27495766  0.24618841  0.93420229     0.11700
H1234       H  0.23006850  0.23244947  0.05813934     0.11700
H1235       H  0.22322561  0.30566765  0.06147329     0.11700
H1236       H  0.26826219  0.31803639  0.93781696     0.11700
C1237       C  0.18622210  0.09754535  0.01107589    -0.17500
C1238       C  0.17151520  0.07200517  0.98322016    -0.32700
H1239       H  0.16641361  0.10624782  0.03600765     0.11500
H1240       H  0.19054711  0.06368582  0.95756868     0.12100
C1241       C  0.73729545  0.76458248  0.46219633    -0.14400
C1242       C  0.71490593  0.76485725  0.49902569     0.07700
C1243       C  0.73519845  0.75643104  0.53532411    -0.14400
C1244       C  0.77733405  0.75311454  0.53534779    -0.14400
C1245       C  0.80000344  0.75697639  0.49889415     0.07700
C1246       C  0.77939599  0.76107179  0.46216525    -0.14400
H1247       H  0.72264704  0.76737458  0.43322881     0.11700
H1248       H  0.71863302  0.75369981  0.56398310     0.11700
H1249       H  0.79215882  0.74835324  0.56406269     0.11700
H1250       H  0.79580902  0.76251494  0.43335124     0.11700
C1251       C  0.57501781  0.70535879  0.51050986    -0.17500
C1252       C  0.55233037  0.68963322  0.48082432    -0.32700
H1253       H  0.58062884  0.68688391  0.53739213     0.11500
H1254       H  0.54692842  0.70734185  0.45341625     0.12100
C1255       C  0.72259975  0.75926590  0.03938232    -0.14400
C1256       C  0.72755054  0.78314582  0.00366360     0.07700
C1257       C  0.74023340  0.76409318  0.96788660    -0.14400
C1258       C  0.74406661  0.72210059  0.96699476    -0.14400
C1259       C  0.73629781  0.69820896  0.00218263     0.07700
C1260       C  0.72672400  0.71746815  0.03856374    -0.14400
H1261       H  0.71585783  0.77231469  0.06838536     0.11700
H1262       H  0.74605414  0.78166847  0.94021383     0.11700
H1263       H  0.75267177  0.70835086  0.93865569     0.11700
H1264       H  0.72161489  0.70015758  0.06651148     0.11700
C1265       C  0.79013262  0.92185659  0.99271080    -0.17500
C1266       C  0.80465626  0.94559829  0.02222296    -0.32700
H1267       H  0.80956180  0.91580022  0.96661198     0.11500
H1268       H  0.78599072  0.95142253  0.04891626     0.12100
C1269       C  0.24816869  0.76348986  0.96413006    -0.14400
C1270       C  0.24601988  0.78362046  0.00147943     0.07700
C1271       C  0.23816945  0.76037963  0.03701531    -0.14400
C1272       C  0.23669812  0.71828067  0.03582365    -0.14400
C1273       C  0.24230827  0.69835613  0.99886460     0.07700
C1274       C  0.24690390  0.72145994  0.96295966    -0.14400
H1275       H  0.25043635  0.77953449  0.93534604     0.11700
H1276       H  0.23449105  0.77482713  0.06600304     0.11700
H1277       H  0.23173411  0.70139552  0.06404582     0.11700
H1278       H  0.24981445  0.70711356  0.93384184     0.11700
C1279       C  0.18248719  0.91941237  0.02052773    -0.17500
C1280       C  0.14683672  0.90799855  0.03936490    -0.32700
H1281       H  0.18480559  0.94847126  0.00463552     0.11500
H1282       H  0.14499239  0.88061298  0.05807896     0.12100
C1283       C  0.28069657  0.04271413  0.24747899    -0.14400
C1284       C  0.30007228  0.00560184  0.25254954     0.07700
C1285       C  0.27655853  0.96988341  0.25579697    -0.14400
C1286       C  0.23440006  0.97155269  0.25752366    -0.14400
C1287       C  0.21504520  0.00910027  0.25698792     0.07700
C1288       C  0.23858380  0.04433576  0.24911327    -0.14400
H1289       H  0.29800354  0.07072029  0.24307532     0.11700
H1290       H  0.29065350  0.94068396  0.25780475     0.11700
H1291       H  0.21745199  0.94325919  0.25946078     0.11700
H1292       H  0.22444995  0.07342907  0.24594189     0.11700
C1293       C  0.70470697  0.04362025  0.24717896    -0.14400
C1294       C  0.68191911  0.00742786  0.25197364     0.07700
C1295       C  0.70242512  0.97113635  0.25817897    -0.14400
C1296       C  0.74446142  0.97142927  0.26251983    -0.14400
C1297       C  0.76696282  0.00813369  0.26157096     0.07700
C1298       C  0.74681757  0.04385712  0.25133867    -0.14400
H1299       H  0.68997892  0.07192218  0.24086449     0.11700
H1300       H  0.68596586  0.94246354  0.26054734     0.11700
H1301       H  0.75895808  0.94273369  0.26675953     0.11700
H1302       H  0.76348692  0.07229963  0.24771965     0.11700
C1303       C  0.38142913  0.86068420  0.37494465    -0.14400
C1304       C  0.40929844  0.89087897  0.38671017     0.07700
C1305       C  0.42712027  0.88720493  0.42508226    -0.14400
C1306       C  0.41660089  0.85456569  0.45129631    -0.14400
C1307       C  0.38762200  0.82534249  0.43990372     0.07700
C1308       C  0.37091671  0.82834316  0.40108250    -0.14400
H1309       H  0.36764452  0.86189170  0.34537128     0.11700
H1310       H  0.44949376  0.90930174  0.43471913     0.11700
H1311       H  0.43006359  0.85307396  0.48096579     0.11700
H1312       H  0.34883167  0.80603529  0.39125528     0.11700
C1313       C  0.58566725  0.85856138  0.36869703    -0.14400
C1314       C  0.57388582  0.89651678  0.38285475     0.07700
C1315       C  0.57409849  0.90335886  0.42474192    -0.14400
C1316       C  0.58600864  0.87289051  0.45174457    -0.14400
C1317       C  0.59641870  0.83474050  0.43751470     0.07700
C1318       C  0.59676825  0.82803361  0.39577734    -0.14400
H1319       H  0.58569369  0.85208422  0.33661765     0.11700
H1320       H  0.56571561  0.93236371  0.43653035     0.11700
H1321       H  0.58882987  0.87982037  0.48339471     0.11700
H1322       H  0.60614287  0.79925749  0.38415186     0.11700
C1323       C  0.41033254  0.10937407  0.42531646    -0.14400
C1324       C  0.41492500  0.11725858  0.38346135     0.07700
C1325       C  0.41037063  0.15707925  0.36857794    -0.14400
C1326       C  0.39984651  0.18797976  0.39470290    -0.14400
C1327       C  0.39377215  0.17975434  0.43618752     0.07700
C1328       C  0.39920845  0.14030338  0.45137181    -0.14400
H1329       H  0.41393857  0.07911452  0.43762879     0.11700
H1330       H  0.41483874  0.16438561  0.33657939     0.11700
H1331       H  0.39521088  0.21807643  0.38238557     0.11700
H1332       H  0.39275418  0.13288061  0.48294914     0.11700
C1333       C  0.51057333  0.26260636  0.26453463    -0.14400
C1334       C  0.47699103  0.27983037  0.24517394     0.07700
C1335       C  0.44659202  0.25381330  0.23040440    -0.14400
C1336       C  0.45137138  0.21230665  0.23163960    -0.14400
C1337       C  0.48623971  0.19540846  0.24820410     0.07700
C1338       C  0.51547083  0.22074459  0.26556313    -0.14400
H1339       H  0.53392050  0.28178909  0.27733904     0.11700
H1340       H  0.41898734  0.26460038  0.21745046     0.11700
H1341       H  0.42777814  0.19335247  0.21888931     0.11700
H1342       H  0.54193123  0.20825331  0.27981364     0.11700
C1343       C  0.45620050  0.79246977  0.25408668    -0.14400
C1344       C  0.49113106  0.81640854  0.24543726     0.07700
C1345       C  0.52751081  0.79751198  0.23496081    -0.14400
C1346       C  0.52858331  0.75573622  0.23138429    -0.14400
C1347       C  0.49309373  0.73172377  0.23779246     0.07700
C1348       C  0.45736757  0.75057219  0.25087989    -0.14400
H1349       H  0.42793933  0.80606774  0.26326165     0.11700
H1350       H  0.55525996  0.81503475  0.22903578     0.11700
H1351       H  0.55755277  0.74287263  0.22404403     0.11700
H1352       H  0.42992391  0.73283183  0.25762112     0.11700
C1353       C  0.64260141  0.09675031  0.12711547    -0.14400
C1354       C  0.60270457  0.08825171  0.11450473     0.07700
C1355       C  0.59433923  0.09063952  0.07289227    -0.14400
C1356       C  0.62508531  0.10220697  0.04472060    -0.14400
C1357       C  0.66495165  0.11010259  0.05746976     0.07700
C1358       C  0.67331537  0.10756467  0.09890315    -0.14400
H1359       H  0.65027656  0.09470438  0.15890174     0.11700
H1360       H  0.56390043  0.08455826  0.06228479     0.11700
H1361       H  0.61717944  0.10692028  0.01336427     0.11700
H1362       H  0.70350300  0.11493196  0.10948673     0.11700
C1363       C  0.64083151  0.92548943  0.13075975    -0.14400
C1364       C  0.60031445  0.92889425  0.11835760     0.07700
C1365       C  0.59041201  0.92066423  0.07816823    -0.14400
C1366       C  0.62039471  0.90756274  0.05129329    -0.14400
C1367       C  0.66071260  0.90417652  0.06388825     0.07700
C1368       C  0.67082318  0.91322883  0.10365638    -0.14400
H1369       H  0.64937882  0.93240126  0.16148718     0.11700
H1370       H  0.55941457  0.92301808  0.06803544     0.11700
H1371       H  0.61179839  0.89849763  0.02125735     0.11700
H1372       H  0.70168724  0.90991964  0.11389677     0.11700
C1373       C  0.30716889  0.91274107  0.10648190    -0.14400
C1374       C  0.31811305  0.89956260  0.06784539     0.07700
C1375       C  0.35932318  0.89942889  0.05594770    -0.14400
C1376       C  0.38939302  0.91262070  0.08243439    -0.14400
C1377       C  0.37857019  0.92479132  0.12161642     0.07700
C1378       C  0.33719500  0.92500760  0.13329180    -0.14400
H1379       H  0.27551869  0.91270813  0.11614932     0.11700
H1380       H  0.36816836  0.88867447  0.02631824     0.11700
H1381       H  0.42101827  0.91243625  0.07273424     0.11700
H1382       H  0.32806414  0.93506443  0.16312486     0.11700
C1383       C  0.35884223  0.12362250  0.12837088    -0.14400
C1384       C  0.38001062  0.08832020  0.12021527     0.07700
C1385       C  0.36899388  0.06564732  0.08636416    -0.14400
C1386       C  0.33816124  0.07861182  0.06066251    -0.14400
C1387       C  0.31849303  0.11524826  0.06741990     0.07700
C1388       C  0.32857021  0.13687191  0.10243152    -0.14400
H1389       H  0.36578111  0.14116648  0.15485179     0.11700
H1390       H  0.38367310  0.03740853  0.08019650     0.11700
H1391       H  0.33059942  0.06017099  0.03510808     0.11700
H1392       H  0.31308956  0.16421120  0.11013697     0.11700
C1393       C  0.73927332  0.26097613  0.46766889    -0.14400
C1394       C  0.71559430  0.25199032  0.50274299     0.07700
C1395       C  0.73537752  0.25009678  0.54041413    -0.14400
C1396       C  0.77773314  0.25329085  0.54225975    -0.14400
C1397       C  0.80136476  0.25898546  0.50664947     0.07700
C1398       C  0.78152268  0.26408328  0.46949882    -0.14400
H1399       H  0.72506286  0.26440217  0.43845321     0.11700
H1400       H  0.71874320  0.24643891  0.56881233     0.11700
H1401       H  0.79194461  0.25057631  0.57154105     0.11700
H1402       H  0.79864894  0.26972305  0.44149537     0.11700
C1403       C  0.56285012  0.16023987  0.43890971    -0.14400
C1404       C  0.60022284  0.18070596  0.43069276     0.07700
C1405       C  0.62277575  0.17019665  0.39597156    -0.14400
C1406       C  0.60954317  0.13888224  0.37144734    -0.14400
C1407       C  0.57353159  0.11691763  0.38103985     0.07700
C1408       C  0.55005748  0.12813139  0.41484461    -0.14400
H1409       H  0.54381399  0.16804724  0.46452460     0.11700
H1410       H  0.65077692  0.18621730  0.38750880     0.11700
H1411       H  0.62763445  0.13180066  0.34483919     0.11700
H1412       H  0.52129540  0.11281220  0.42203506     0.11700
C1413       C  0.59191853  0.35004180  0.46154425    -0.17500
C1414       C  0.57984162  0.31456630  0.47977919    -0.32700
H1415       H  0.61985198  0.35199630  0.44345492     0.11500
H1416       H  0.55028898  0.31226021  0.49501710     0.12100
C1417       C  0.27601359  0.03879894  0.75113901    -0.14400
C1418       C  0.29817035  0.00399785  0.74311376     0.07700
C1419       C  0.27730246  0.96806384  0.73415037    -0.14400
C1420       C  0.23520472  0.96708490  0.73185259    -0.14400
C1421       C  0.21285719  0.00230934  0.73779401     0.07700
C1422       C  0.23374875  0.03776073  0.74907478    -0.14400
H1423       H  0.29125366  0.06678535  0.75910251     0.11700
H1424       H  0.29349960  0.94052421  0.72870450     0.11700
H1425       H  0.22079207  0.93827477  0.72608464     0.11700
H1426       H  0.21734302  0.06498851  0.75541340     0.11700
C1427       C  0.70031619  0.97388567  0.75531917    -0.14400
C1428       C  0.67934472  0.00910747  0.74540477     0.07700
C1429       C  0.70144828  0.04483216  0.73609497    -0.14400
C1430       C  0.74371246  0.04503724  0.73495888    -0.14400
C1431       C  0.76497806  0.00919053  0.74235032     0.07700
C1432       C  0.74263917  0.97407755  0.75419974    -0.14400
H1433       H  0.68407984  0.94604525  0.76368898     0.11700
H1434       H  0.68612076  0.07270632  0.72927446     0.11700
H1435       H  0.75885370  0.07365219  0.72842031     0.11700
H1436       H  0.75805950  0.94632336  0.76131767     0.11700
C1437       C  0.36442259  0.17024689  0.60179069    -0.14400
C1438       C  0.38597672  0.17913556  0.56532861     0.07700
C1439       C  0.42116060  0.15745667  0.55630377    -0.14400
C1440       C  0.43305556  0.12604455  0.58191189    -0.14400
C1441       C  0.41034490  0.11622059  0.61728571     0.07700
C1442       C  0.37630875  0.13897705  0.62732054    -0.14400
H1443       H  0.33816158  0.18725425  0.61073985     0.11700
H1444       H  0.43899197  0.16358509  0.52892398     0.11700
H1445       H  0.46034902  0.10987640  0.57435624     0.11700
H1446       H  0.35887167  0.13270181  0.65504848     0.11700
C1447       C  0.56772514  0.11849972  0.57198981    -0.14400
C1448       C  0.56416551  0.12556061  0.61373198     0.07700
C1449       C  0.57066371  0.16523152  0.62737480    -0.14400
C1450       C  0.58138379  0.19678334  0.60007559    -0.14400
C1451       C  0.58597374  0.18948304  0.55853875     0.07700
C1452       C  0.57935064  0.14998674  0.54485675    -0.14400
H1453       H  0.56320970  0.08834400  0.56054202     0.11700
H1454       H  0.56767087  0.17193313  0.65931308     0.11700
H1455       H  0.58769403  0.22664860  0.61155990     0.11700
H1456       H  0.58589715  0.14271348  0.51373617     0.11700
C1457       C  0.55125153  0.88804855  0.58318319    -0.14400
C1458       C  0.57189053  0.89626479  0.61908583     0.07700
C1459       C  0.60423094  0.87159458  0.63019482    -0.14400
C1460       C  0.61677559  0.84061943  0.60514889    -0.14400
C1461       C  0.59734620  0.83339085  0.56823198     0.07700
C1462       C  0.56333000  0.85643958  0.55848040    -0.14400
H1463       H  0.52515733  0.90544988  0.57463595     0.11700
H1464       H  0.61999776  0.87624611  0.65833825     0.11700
H1465       H  0.64190633  0.82247094  0.61481275     0.11700
H1466       H  0.54642907  0.85101134  0.53128364     0.11700
C1467       C  0.42468053  0.85132783  0.62849737    -0.14400
C1468       C  0.41809463  0.89205239  0.61807963     0.07700
C1469       C  0.40114510  0.90191647  0.58062977    -0.14400
C1470       C  0.38843922  0.87123961  0.55508592    -0.14400
C1471       C  0.39379168  0.83055855  0.56613313     0.07700
C1472       C  0.41274076  0.82068304  0.60249975    -0.14400
H1473       H  0.43850461  0.84326536  0.65705242     0.11700
H1474       H  0.39603844  0.93312429  0.57207326     0.11700
H1475       H  0.37287729  0.87910672  0.52744070     0.11700
H1476       H  0.41646913  0.78937617  0.61158892     0.11700
C1477       C  0.52409686  0.21796487  0.75324442    -0.14400
C1478       C  0.48730339  0.19576328  0.75247542     0.07700
C1479       C  0.45050277  0.21636778  0.75440848    -0.14400
C1480       C  0.45056470  0.25807315  0.75923952    -0.14400
C1481       C  0.48740398  0.27996387  0.76325113     0.07700
C1482       C  0.52412199  0.25961191  0.75802145    -0.14400
H1483       H  0.55301680  0.20317718  0.75057852     0.11700
H1484       H  0.42158516  0.20029902  0.75254547     0.11700
H1485       H  0.42165259  0.27296914  0.75981819     0.11700
H1486       H  0.55306556  0.27577462  0.75792334     0.11700
C1487       C  0.45033226  0.79351177  0.75581284    -0.14400
C1488       C  0.48656135  0.81599638  0.74883387     0.07700
C1489       C  0.52246255  0.79550565  0.74011759    -0.14400
C1490       C  0.52266004  0.75341968  0.74128796    -0.14400
C1491       C  0.48729800  0.73082265  0.75228078     0.07700
C1492       C  0.45059267  0.75142331  0.75728931    -0.14400
H1493       H  0.42180166  0.80839483  0.76112115     0.11700
H1494       H  0.55063624  0.81194077  0.73312849     0.11700
H1495       H  0.55104559  0.73841549  0.73552183     0.11700
H1496       H  0.42187837  0.73574650  0.76269991     0.11700
C1497       C  0.38056189  0.07948977  0.92246176    -0.14400
C1498       C  0.37334109  0.07976638  0.88062816     0.07700
C1499       C  0.33532693  0.09255754  0.86677462    -0.14400
C1500       C  0.30594648  0.10626821  0.89402531    -0.14400
C1501       C  0.31380129  0.10702778  0.93560359     0.07700
C1502       C  0.35119409  0.09344639  0.94959660    -0.14400
H1503       H  0.40941812  0.06987039  0.93410394     0.11700
H1504       H  0.32840872  0.09253688  0.83476752     0.11700
H1505       H  0.27750346  0.11729150  0.88260400     0.11700
H1506       H  0.35875903  0.09588685  0.98115850     0.11700
C1507       C  0.33792080  0.93612113  0.95098367    -0.14400
C1508       C  0.30514133  0.91167158  0.93866571     0.07700
C1509       C  0.30378651  0.90027692  0.89782823    -0.14400
C1510       C  0.33581393  0.91000169  0.87083308    -0.14400
C1511       C  0.36994959  0.93227442  0.88354844     0.07700
C1512       C  0.37005579  0.94631784  0.92368085    -0.14400
H1513       H  0.33980006  0.94560329  0.98212767     0.11700
H1514       H  0.27860543  0.88198901  0.88718783     0.11700
H1515       H  0.33384888  0.89960615  0.83997448     0.11700
H1516       H  0.39521330  0.96469565  0.93419116     0.11700
C1517       C  0.60322355  0.94468853  0.92012752    -0.14400
C1518       C  0.59797243  0.92641114  0.88238568     0.07700
C1519       C  0.62478851  0.89608950  0.87082382    -0.14400
C1520       C  0.65527312  0.88350655  0.89667972    -0.14400
C1521       C  0.66004730  0.90095065  0.93482661     0.07700
C1522       C  0.63443123  0.93257827  0.94576545    -0.14400
H1523       H  0.58366305  0.96874628  0.92956875     0.11700
H1524       H  0.62224226  0.88188011  0.84164778     0.11700
H1525       H  0.67510600  0.85986495  0.88673978     0.11700
H1526       H  0.63767421  0.94735221  0.97450598     0.11700
C1527       C  0.62426470  0.12414287  0.86488501    -0.14400
C1528       C  0.59958937  0.09048762  0.87627527     0.07700
C1529       C  0.60741794  0.06952133  0.91260805    -0.14400
C1530       C  0.63901467  0.08225245  0.93734383    -0.14400
C1531       C  0.66250940  0.11704136  0.92694441     0.07700
C1532       C  0.65531416  0.13726284  0.88990309    -0.14400
H1533       H  0.61962819  0.14038333  0.83652731     0.11700
H1534       H  0.58965853  0.04278396  0.92151399     0.11700
H1535       H  0.64411764  0.06524783  0.96503966     0.11700
H1536       H  0.67365957  0.16332003  0.88008432     0.11700
loop_ 
_geom_bond_atom_site_label_1 
_geom_bond_atom_site_label_2 
_geom_bond_distance 
_geom_bond_site_symmetry_2 
_ccdc_geom_bond_type 
O1           C12   1.294       .  A
O1          Eu37   2.471       .  S
O2           C13   1.295       .  A
O2          Eu36   2.480       .  S
O3           C14   1.291       .  A
O3           Eu9   2.447       .  S
O4           C15   1.290       .  A
O4           Eu9   2.446       .  S
O5           C15   1.288       .  A
O5          Eu39   2.435       .  S
O6           C14   1.287   1_565  A
O6          Eu38   2.431       .  S
O7           C13   1.289       .  A
O7           Eu9   2.445       .  S
O8           C12   1.286       .  A
O8           Eu9   2.420       .  S
Eu9          O19   2.368       .  S
Eu9          O11   2.331       .  S
Eu9          O10   2.313       .  S
Eu9          O17   2.364       .  S
O10         Eu39   2.325       .  S
O10         Eu36   2.330       .  S
O11         Eu37   2.335       .  S
O11         Eu38   2.323   1_545  S
C12        C1528   1.473       .  S
C13        C1448   1.486       .  S
C14        C1428   1.470       .  S
C15        C1478   1.473       .  S
H16          O17   0.966       .  S
O17         Eu38   2.376   1_545  S
O17         Eu36   2.354       .  S
H18          O19   0.966       .  S
O19         Eu37   2.360       .  S
O19         Eu39   2.359       .  S
O20          C43   1.290       .  A
O20         Eu36   2.450   1_565  S
O21          C44   1.293       .  A
O21         Eu37   2.464   1_565  S
O22          C45   1.287       .  A
O22         Eu38   2.431       .  S
O23          C46   1.284       .  A
O23         Eu39   2.412       .  S
O24          C47   1.287       .  A
O24         Eu39   2.434       .  S
O25          C48   1.289       .  A
O25         Eu38   2.442       .  S
O26          C49   1.288       .  A
O26         Eu40   2.435       .  S
O27          C50   1.291   1_565  A
O27         Eu40   2.449       .  S
O28          C49   1.291       .  A
O28         Eu38   2.456       .  S
O29          C50   1.286       .  A
O29         Eu39   2.425       .  S
O30          C45   1.295       .  A
O30         Eu36   2.476   1_565  S
O31          C48   1.293       .  A
O31         Eu37   2.466   1_565  S
O32          C47   1.294       .  A
O32         Eu37   2.468       .  S
O33          C46   1.291       .  A
O33         Eu36   2.454       .  S
O34          C43   1.290       .  A
O34         Eu40   2.449       .  S
O35          C44   1.293       .  A
O35         Eu40   2.458       .  S
Eu36         O54   2.370       .  S
Eu36         O42   2.332   1_545  S
Eu37         O41   2.331       .  S
Eu37         O52   2.369   1_545  S
Eu38         O52   2.364       .  S
Eu38         O42   2.312       .  S
Eu39         O41   2.312       .  S
Eu39         O54   2.366       .  S
Eu40         O41   2.316   1_565  S
Eu40         O52   2.370       .  S
Eu40         O54   2.365   1_565  S
Eu40         O42   2.321       .  S
C43        C1468   1.466       .  S
C44        C1511   1.489       .  S
C45        C1458   1.479       .  S
C46        C1441   1.464       .  S
C47        C1498   1.481       .  S
C48        C1518   1.483       .  S
C49        C1488   1.476       .  S
C50        C1418   1.469       .  S
H51          O52   0.965       .  S
H53          O54   0.967       .  S
C55          C56   1.537       .  S
C55          C61   1.526       .  S
C55          C59   1.541       .  S
C55        C1394   1.526       .  S
C56          H63   1.083       .  S
C56          C57   1.360       .  D
C57          C58   1.545       .  S
C57        C1451   1.484       .  S
C58          C62   1.556       .  S
C58          C60   1.544       .  S
C58          H64   1.109       .  S
C59          H65   1.085       .  S
C59          C60   1.373       .  D
C60        C1404   1.496       .  S
C61          H66   1.086       .  S
C61          C62   1.364       .  D
C62        C1414   1.491       .  S
O67          C78   1.296       .  A
O67        Eu103   2.479       .  S
O68          C79   1.295       .  A
O68        Eu102   2.476       .  S
O69          C80   1.291       .  A
O69         Eu75   2.457       .  S
O70          C81   1.293       .  A
O70         Eu75   2.473       .  S
O71          C81   1.283       .  A
O71        Eu105   2.406       .  S
O72          C80   1.288   1_565  A
O72        Eu104   2.436       .  S
O73          C79   1.292       .  A
O73         Eu75   2.452       .  S
O74          C78   1.290       .  A
O74         Eu75   2.447       .  S
Eu75         O85   2.321       .  S
Eu75         O77   2.369       .  S
Eu75         O76   2.368       .  S
Eu75         O83   2.327       .  S
O76        Eu105   2.359       .  S
O76        Eu102   2.368       .  S
O77        Eu103   2.369       .  S
O77        Eu104   2.358   1_545  S
C78        C1407   1.479       .  S
C79        C1354   1.482       .  S
C80        C1294   1.477       .  S
C81        C1337   1.468       .  S
H82          O83   0.963       .  S
O83        Eu104   2.323   1_545  S
O83        Eu102   2.348       .  S
H84          O85   0.962       .  S
O85        Eu103   2.343       .  S
O85        Eu105   2.317       .  S
O86         C109   1.294       .  A
O86        Eu102   2.474   1_565  S
O87         C110   1.296       .  A
O87        Eu103   2.482   1_565  S
O88         C111   1.287       .  A
O88        Eu104   2.428       .  S
O89         C112   1.291       .  A
O89        Eu105   2.456       .  S
O90         C113   1.290       .  A
O90        Eu105   2.448       .  S
O91         C114   1.288       .  A
O91        Eu104   2.435       .  S
O92         C115   1.290       .  A
O92        Eu106   2.453       .  S
O93         C116   1.290   1_565  A
O93        Eu106   2.448       .  S
O94         C115   1.288       .  A
O94        Eu104   2.435       .  S
O95         C116   1.284       .  A
O95        Eu105   2.413       .  S
O96         C111   1.292       .  A
O96        Eu102   2.462   1_565  S
O97         C114   1.295       .  A
O97        Eu103   2.475   1_565  S
O98         C113   1.294       .  A
O98        Eu103   2.474       .  S
O99         C112   1.294       .  A
O99        Eu102   2.473       .  S
O100        C109   1.291       .  A
O100       Eu106   2.450       .  S
O101        C110   1.291       .  A
O101       Eu106   2.444       .  S
Eu102       O120   2.339       .  S
Eu102       O108   2.366   1_545  S
Eu103       O107   2.372       .  S
Eu103       O118   2.349   1_545  S
Eu104       O118   2.323       .  S
Eu104       O108   2.357       .  S
Eu105       O107   2.363       .  S
Eu105       O120   2.316       .  S
Eu106       O107   2.368   1_565  S
Eu106       O118   2.332       .  S
Eu106       O120   2.326   1_565  S
Eu106       O108   2.362       .  S
C109       C1377   1.475       .  S
C110       C1304   1.485       .  S
C111       C1364   1.467       .  S
C112       C1384   1.483       .  S
C113       C1324   1.479       .  S
C114       C1314   1.479       .  S
C115       C1344   1.475       .  S
C116       C1284   1.467       .  S
H117        O118   0.964       .  S
H119        O120   0.964       .  S
C121        C122   1.534   1_554  S
C121        C127   1.529       .  S
C121        C125   1.537       .  S
C121       C1270   1.524       .  S
C122        H129   1.082       .  S
C122        C123   1.362       .  D
C123        C124   1.547   1_556  S
C123       C1508   1.493       .  S
C124        C128   1.559       .  S
C124        C126   1.541       .  S
C124        H130   1.111       .  S
C125        H131   1.086       .  S
C125        C126   1.364       .  D
C126       C1374   1.472       .  S
C127        H132   1.086       .  S
C127        C128   1.367       .  D
C128       C1279   1.494       .  S
C133        C134   1.540       .  S
C133        C139   1.526   1_554  S
C133        C137   1.537   1_554  S
C133       C1256   1.527       .  S
C134        H141   1.084       .  S
C134        C135   1.361       .  D
C135        C136   1.533   1_554  S
C135       C1367   1.464       .  S
C136        C140   1.547       .  S
C136        C138   1.546       .  S
C136        H142   1.110       .  S
C137        H143   1.086       .  S
C137        C138   1.371       .  D
C138       C1521   1.491       .  S
C139        H144   1.087       .  S
C139        C140   1.363       .  D
C140       C1265   1.480       .  S
C145        C146   1.535       .  S
C145        C151   1.522       .  S
C145        C149   1.538       .  S
C145       C1242   1.518       .  S
C146        H153   1.085       .  S
C146        C147   1.360       .  D
C147        C148   1.542       .  S
C147       C1317   1.473       .  S
C148        C152   1.551       .  S
C148        C150   1.548       .  S
C148        H154   1.109       .  S
C149        H155   1.085       .  S
C149        C150   1.371       .  D
C150       C1461   1.494       .  S
C151        H156   1.087       .  S
C151        C152   1.360       .  D
C152       C1251   1.480       .  S
C157        C158   1.532   1_556  S
C157        C163   1.525   1_556  S
C157        C161   1.542       .  S
C157       C1228   1.525       .  S
C158        H165   1.085       .  S
C158        C159   1.369       .  D
C159        C160   1.554       .  S
C159       C1387   1.502       .  S
C160        C164   1.552       .  S
C160        C162   1.541   1_554  S
C160        H166   1.109       .  S
C161        H167   1.082       .  S
C161        C162   1.365       .  D
C162       C1501   1.475       .  S
C163        H168   1.087       .  S
C163        C164   1.360       .  D
C164       C1237   1.483       .  S
C169        C170   1.535       .  S
C169        C175   1.524       .  S
C169        C173   1.537   1_556  S
C169       C1214   1.515       .  S
C170        H177   1.085       .  S
C170        C171   1.369       .  D
C171        C172   1.546       .  S
C171       C1531   1.487       .  S
C172        C176   1.554       .  S
C172        C174   1.543   1_556  S
C172        H178   1.109       .  S
C173        H179   1.085       .  S
C173        C174   1.357       .  D
C174       C1357   1.478       .  S
C175        H180   1.086       .  S
C175        C176   1.364       .  D
C176       C1223   1.489       .  S
C181        C182   1.542       .  S
C181        C187   1.524       .  S
C181        C185   1.532       .  S
C181       C1200   1.522       .  S
C182        H189   1.084       .  S
C182        C183   1.364       .  D
C183        C184   1.540       .  S
C183       C1327   1.476       .  S
C184        C188   1.544       .  S
C184        C186   1.542       .  S
C184        H190   1.109       .  S
C185        H191   1.085       .  S
C185        C186   1.368       .  D
C186       C1438   1.482       .  S
C187        H192   1.087       .  S
C187        C188   1.360       .  D
C188       C1209   1.472       .  S
C193        C194   1.540       .  S
C193        C199   1.526       .  S
C193        C197   1.531       .  S
C193       C1186   1.516       .  S
C194        H201   1.082       .  S
C194        C195   1.361       .  D
C195        C196   1.535       .  S
C195       C1471   1.466       .  S
C196        C200   1.553       .  S
C196        C198   1.544       .  S
C196        H202   1.111       .  S
C197        H203   1.087       .  S
C197        C198   1.362       .  D
C198       C1307   1.486       .  S
C199        H204   1.086       .  S
C199        C200   1.365       .  D
C200       C1195   1.483       .  S
O205        C216   1.290       .  A
O205       Eu241   2.448       .  S
O206        C217   1.290   1_455  A
O206       Eu240   2.449       .  S
O207        C218   1.289       .  A
O207       Eu213   2.440       .  S
O208        C219   1.290       .  A
O208       Eu213   2.444       .  S
O209        C219   1.295       .  A
O209       Eu243   2.476       .  S
O210        C218   1.293       .  A
O210       Eu242   2.467       .  S
O211        C217   1.290       .  A
O211       Eu213   2.449       .  S
O212        C216   1.288       .  A
O212       Eu213   2.438       .  S
Eu213       O223   2.320       .  S
Eu213       O215   2.366       .  S
Eu213       O214   2.356       .  S
Eu213       O221   2.323       .  S
O214       Eu243   2.367       .  S
O214       Eu240   2.363   1_655  S
O215       Eu241   2.365       .  S
O215       Eu242   2.371       .  S
C216       C1245   1.475       .  S
C217       C1086   1.478       .  S
C218       C1156   1.474       .  S
C219       C1136   1.479       .  S
H220        O221   0.963       .  S
O221       Eu242   2.351       .  S
O221       Eu240   2.324   1_655  S
H222        O223   0.963       .  S
O223       Eu241   2.321       .  S
O223       Eu243   2.343       .  S
O224        C247   1.292       .  A
O224       Eu240   2.460       .  S
O225        C248   1.291       .  A
O225       Eu241   2.451       .  S
O226        C249   1.293       .  A
O226       Eu242   2.464   1_455  S
O227        C250   1.296       .  A
O227       Eu243   2.476   1_455  S
O228        C251   1.295       .  A
O228       Eu243   2.477       .  S
O229        C252   1.292       .  A
O229       Eu242   2.461       .  S
O230        C253   1.289       .  A
O230       Eu244   2.441       .  S
O231        C254   1.291       .  A
O231       Eu244   2.451       .  S
O232        C253   1.295       .  A
O232       Eu242   2.477   1_455  S
O233        C254   1.296       .  A
O233       Eu243   2.484   1_455  S
O234        C249   1.290       .  A
O234       Eu240   2.447       .  S
O235        C252   1.292       .  A
O235       Eu241   2.456       .  S
O236        C251   1.292       .  A
O236       Eu241   2.457       .  S
O237        C250   1.286       .  A
O237       Eu240   2.419       .  S
O238        C247   1.285       .  A
O238       Eu244   2.416       .  S
O239        C248   1.286   1_455  A
O239       Eu244   2.426       .  S
Eu240       O258   2.331       .  S
Eu240       O246   2.360       .  S
Eu241       O245   2.371       .  S
Eu241       O256   2.323       .  S
Eu242       O256   2.340       .  S
Eu242       O246   2.362   1_655  S
Eu243       O245   2.370       .  S
Eu243       O258   2.344   1_655  S
Eu244       O245   2.363   1_455  S
Eu244       O256   2.319   1_455  S
Eu244       O258   2.319       .  S
Eu244       O246   2.365       .  S
C247       C1189   1.466       .  S
C248       C1096   1.472       .  S
C249       C1146   1.476       .  S
C250       C1106   1.476       .  S
C251       C1126   1.485       .  S
C252       C1166   1.475       .  S
C253       C1176   1.479       .  S
C254       C1116   1.486       .  S
H255        O256   0.963       .  S
H257        O258   0.963       .  S
O259        C270   1.293       .  A
O259       Eu295   2.466       .  S
O260        C271   1.292   1_455  A
O260       Eu294   2.461       .  S
O261        C272   1.285       .  A
O261       Eu267   2.418       .  S
O262        C273   1.289       .  A
O262       Eu267   2.440       .  S
O263        C273   1.294       .  A
O263       Eu297   2.468       .  S
O264        C272   1.295       .  A
O264       Eu296   2.477       .  S
O265        C271   1.286       .  A
O265       Eu267   2.418       .  S
O266        C270   1.288       .  A
O266       Eu267   2.438       .  S
Eu267       O277   2.359       .  S
Eu267       O269   2.316       .  S
Eu267       O268   2.318       .  S
Eu267       O275   2.369       .  S
O268       Eu297   2.332       .  S
O268       Eu294   2.330   1_655  S
O269       Eu295   2.320       .  S
O269       Eu296   2.333       .  S
C270       C1397   1.482       .  S
C271        C986   1.470       .  S
C272       C1006   1.478       .  S
C273       C1066   1.483       .  S
H274        O275   0.965       .  S
O275       Eu296   2.358       .  S
O275       Eu294   2.365   1_655  S
H276        O277   0.966       .  S
O277       Eu295   2.369       .  S
O277       Eu297   2.367       .  S
O278        C301   1.290       .  A
O278       Eu294   2.453       .  S
O279        C302   1.289       .  A
O279       Eu295   2.440       .  S
O280        C303   1.294       .  A
O280       Eu296   2.472   1_455  S
O281        C304   1.294       .  A
O281       Eu297   2.469   1_455  S
O282        C305   1.294       .  A
O282       Eu297   2.469       .  S
O283        C306   1.293       .  A
O283       Eu296   2.464       .  S
O284        C307   1.285       .  A
O284       Eu298   2.415       .  S
O285        C308   1.286       .  A
O285       Eu298   2.424       .  S
O286        C307   1.292       .  A
O286       Eu296   2.456   1_455  S
O287        C308   1.293       .  A
O287       Eu297   2.466   1_455  S
O288        C303   1.291       .  A
O288       Eu294   2.448       .  S
O289        C306   1.288       .  A
O289       Eu295   2.439       .  S
O290        C305   1.289       .  A
O290       Eu295   2.442       .  S
O291        C304   1.288       .  A
O291       Eu294   2.430       .  S
O292        C301   1.291       .  A
O292       Eu298   2.455       .  S
O293        C302   1.289   1_455  A
O293       Eu298   2.441       .  S
Eu294       O312   2.370       .  S
Eu294       O300   2.320       .  S
Eu295       O299   2.328       .  S
Eu295       O310   2.370       .  S
Eu296       O310   2.361       .  S
Eu296       O300   2.337   1_655  S
Eu297       O299   2.334       .  S
Eu297       O312   2.364   1_655  S
Eu298       O299   2.321   1_455  S
Eu298       O310   2.369   1_455  S
Eu298       O312   2.357       .  S
Eu298       O300   2.323       .  S
C301       C1203   1.480       .  S
C302        C996   1.471       .  S
C303       C1036   1.484       .  S
C304       C1076   1.473       .  S
C305       C1056   1.481       .  S
C306       C1019   1.473       .  S
C307       C1026   1.471       .  S
C308       C1046   1.474       .  S
H309        O310   0.967       .  S
H311        O312   0.968       .  S
C313        C314   1.537       .  S
C313        C319   1.524       .  S
C313        C317   1.536       .  S
C313        C972   1.520       .  S
C314        H321   1.084       .  S
C314        C315   1.370       .  D
C315        C316   1.548       .  S
C315       C1016   1.495       .  S
C316        C320   1.552       .  S
C316        C318   1.544       .  S
C316        H322   1.108       .  S
C317        H323   1.083       .  S
C317        C318   1.360       .  D
C318       C1129   1.483       .  S
C319        H324   1.086       .  S
C319        C320   1.364       .  D
C320        C981   1.485       .  S
C325        C326   1.538       .  S
C325        C331   1.522       .  S
C325        C329   1.533       .  S
C325        C958   1.517       .  S
C326        H333   1.084       .  S
C326        C327   1.371       .  D
C327        C328   1.552       .  S
C327       C1119   1.503       .  S
C328        C332   1.546       .  S
C328        C330   1.540       .  S
C328        H334   1.109       .  S
C329        H335   1.084       .  S
C329        C330   1.359       .  D
C330       C1029   1.467       .  S
C331        H336   1.087       .  S
C331        C332   1.360       .  D
C332        C967   1.472       .  S
C337        C338   1.537   1_545  S
C337        C343   1.525       .  S
C337        C341   1.540       .  S
C337       C1297   1.520       .  S
C338        H345   1.085       .  S
C338        C339   1.359       .  D
C339        C340   1.537   1_565  S
C339       C1159   1.467       .  S
C340        C344   1.546       .  S
C340        C342   1.545       .  S
C340        H346   1.110       .  S
C341        H347   1.085       .  S
C341        C342   1.370       .  D
C342       C1069   1.490       .  S
C343        H348   1.087       .  S
C343        C344   1.361       .  D
C344        C953   1.475       .  S
C349        C350   1.537       .  S
C349        C355   1.528   1_545  S
C349        C353   1.534   1_545  S
C349       C1431   1.519       .  S
C350        H357   1.082       .  S
C350        C351   1.358       .  D
C351        C352   1.542   1_545  S
C351       C1059   1.478       .  S
C352        C356   1.556       .  S
C352        C354   1.549       .  S
C352        H358   1.108       .  S
C353        H359   1.084       .  S
C353        C354   1.370       .  D
C354       C1169   1.496       .  S
C355        H360   1.086       .  S
C355        C356   1.364       .  D
C356        C949   1.492       .  S
C361        C362   1.536       .  S
C361        C367   1.524       .  S
C361        C365   1.537       .  S
C361        C936   1.526       .  S
C362        H369   1.085       .  S
C362        C363   1.372       .  D
C363        C364   1.546       .  S
C363       C1139   1.494       .  S
C364        C368   1.547       .  S
C364        C366   1.542       .  S
C364        H370   1.109       .  S
C365        H371   1.083       .  S
C365        C366   1.363       .  D
C366       C1009   1.472       .  S
C367        H372   1.087       .  S
C367        C368   1.361       .  D
C368        C946   1.477       .  S
C373        C374   1.534       .  S
C373        C379   1.523       .  S
C373        C377   1.535       .  S
C373        C922   1.514       .  S
C374        H381   1.084       .  S
C374        C375   1.366       .  D
C375        C376   1.546       .  S
C375       C1039   1.496       .  S
C376        C380   1.555       .  S
C376        C378   1.543       .  S
C376        H382   1.109       .  S
C377        H383   1.085       .  S
C377        C378   1.359       .  D
C378       C1109   1.470       .  S
C379        H384   1.086       .  S
C379        C380   1.365       .  D
C380        C932   1.488       .  S
C385        C386   1.537       .  S
C385        C391   1.522       .  S
C385        C389   1.533   1_545  S
C385       C1287   1.511       .  S
C386        H393   1.085       .  S
C386        C387   1.369       .  D
C387        C388   1.546       .  S
C387       C1079   1.489       .  S
C388        C392   1.554       .  S
C388        C390   1.542   1_545  S
C388        H394   1.109       .  S
C389        H395   1.085       .  S
C389        C390   1.356       .  D
C390       C1149   1.473       .  S
C391        H396   1.086       .  S
C391        C392   1.363       .  D
C392        C918   1.488       .  S
C397        C398   1.534   1_545  S
C397        C403   1.522       .  S
C397        C401   1.531       .  S
C397       C1421   1.516       .  S
C398        H405   1.083       .  S
C398        C399   1.358       .  D
C399        C400   1.545   1_565  S
C399       C1179   1.473       .  S
C400        C404   1.552       .  S
C400        C402   1.544       .  S
C400        H406   1.110       .  S
C401        H407   1.085       .  S
C401        C402   1.368       .  D
C402       C1049   1.484       .  S
C403        H408   1.087       .  S
C403        C404   1.362       .  D
C404        C913   1.479       .  S
O409        C420   1.291   1_556  A
O409       Eu445   2.456       .  S
O410        C421   1.290       .  A
O410       Eu444   2.452       .  S
O411        C422   1.288       .  A
O411       Eu417   2.431       .  S
O412        C423   1.289       .  A
O412       Eu417   2.441       .  S
O413        C423   1.295       .  A
O413       Eu447   2.477   1_554  S
O414        C422   1.294       .  A
O414       Eu446   2.470       .  S
O415        C421   1.291       .  A
O415       Eu417   2.459       .  S
O416        C420   1.291       .  A
O416       Eu417   2.457       .  S
Eu417       O427   2.322       .  S
Eu417       O419   2.364       .  S
Eu417       O418   2.357       .  S
Eu417       O425   2.328       .  S
O418       Eu447   2.367   1_554  S
O418       Eu444   2.364       .  S
O419       Eu445   2.366   1_554  S
O419       Eu446   2.374       .  S
C420       C1259   1.483       .  S
C421        C939   1.480       .  S
C422        C844   1.471       .  S
C423        C904   1.479       .  S
H424        O425   0.963       .  S
O425       Eu446   2.353       .  S
O425       Eu444   2.322       .  S
H426        O427   0.963       .  S
O427       Eu445   2.326   1_554  S
O427       Eu447   2.345   1_554  S
O428        C451   1.291   1_554  A
O428       Eu444   2.450       .  S
O429        C452   1.291       .  A
O429       Eu445   2.457       .  S
O430        C453   1.298       .  A
O430       Eu446   2.495       .  S
O431        C454   1.294       .  A
O431       Eu447   2.473   1_554  S
O432        C455   1.295       .  A
O432       Eu447   2.476       .  S
O433        C456   1.296       .  A
O433       Eu446   2.481   1_556  S
O434        C457   1.290       .  A
O434       Eu448   2.446       .  S
O435        C458   1.291       .  A
O435       Eu448   2.454       .  S
O436        C457   1.297       .  A
O436       Eu446   2.492   1_556  S
O437        C458   1.296       .  A
O437       Eu447   2.481       .  S
O438        C453   1.292       .  A
O438       Eu444   2.458       .  S
O439        C456   1.289       .  A
O439       Eu445   2.441       .  S
O440        C455   1.291       .  A
O440       Eu445   2.448       .  S
O441        C454   1.289       .  A
O441       Eu444   2.441       .  S
O442        C451   1.286       .  A
O442       Eu448   2.428       .  S
O443        C452   1.287       .  A
O443       Eu448   2.429       .  S
Eu444       O462   2.326   1_554  S
Eu444       O450   2.367   1_554  S
Eu445       O449   2.368       .  S
Eu445       O460   2.335       .  S
Eu446       O460   2.350   1_554  S
Eu446       O450   2.368   1_554  S
Eu447       O449   2.372       .  S
Eu447       O462   2.344       .  S
Eu448       O449   2.366       .  S
Eu448       O460   2.327       .  S
Eu448       O462   2.320       .  S
Eu448       O450   2.370       .  S
C451       C1217   1.472       .  S
C452        C975   1.475       .  S
C453        C834   1.493       .  S
C454        C874   1.475       .  S
C455        C894   1.485       .  S
C456        C854   1.477       .  S
C457        C864   1.487       .  S
C458        C884   1.484       .  S
H459        O460   0.964       .  S
H461        O462   0.963       .  S
O463        C474   1.294       .  A
O463       Eu499   2.471       .  S
O464        C475   1.291       .  A
O464       Eu498   2.452       .  S
O465        C476   1.291       .  A
O465       Eu471   2.456       .  S
O466        C477   1.290       .  A
O466       Eu471   2.444       .  S
O467        C477   1.294       .  A
O467       Eu501   2.468   1_554  S
O468        C476   1.293       .  A
O468       Eu500   2.467   1_554  S
O469        C475   1.284       .  A
O469       Eu471   2.409       .  S
O470        C474   1.285   1_554  A
O470       Eu471   2.421       .  S
Eu471       O481   2.371   1_554  S
Eu471       O473   2.307   1_554  S
Eu471       O472   2.319       .  S
Eu471       O479   2.368       .  S
O472       Eu501   2.332   1_554  S
O472       Eu498   2.324       .  S
O473       Eu499   2.322       .  S
O473       Eu500   2.331       .  S
C474       C1273   1.478       .  S
C475        C925   1.467       .  S
C476        C774   1.484       .  S
C477        C817   1.482       .  S
H478        O479   0.965       .  S
O479       Eu500   2.364   1_554  S
O479       Eu498   2.378       .  S
H480        O481   0.966       .  S
O481       Eu499   2.367       .  S
O481       Eu501   2.372       .  S
O482        C505   1.293       .  A
O482       Eu498   2.469       .  S
O483        C506   1.290       .  A
O483       Eu499   2.448       .  S
O484        C507   1.296       .  A
O484       Eu500   2.485   1_554  S
O485        C508   1.293       .  A
O485       Eu501   2.464   1_554  S
O486        C509   1.293       .  A
O486       Eu501   2.467       .  S
O487        C510   1.295       .  A
O487       Eu500   2.476       .  S
O488        C511   1.285       .  A
O488       Eu502   2.416       .  S
O489        C512   1.284       .  A
O489       Eu502   2.414       .  S
O490        C511   1.292       .  A
O490       Eu500   2.456       .  S
O491        C512   1.294       .  A
O491       Eu501   2.473       .  S
O492        C507   1.290       .  A
O492       Eu498   2.440       .  S
O493        C510   1.290       .  A
O493       Eu499   2.440       .  S
O494        C509   1.291       .  A
O494       Eu499   2.455       .  S
O495        C508   1.289       .  A
O495       Eu498   2.440       .  S
O496        C505   1.288   1_556  A
O496       Eu502   2.436       .  S
O497        C506   1.288       .  A
O497       Eu502   2.434       .  S
Eu498       O516   2.368       .  S
Eu498       O504   2.322       .  S
Eu499       O503   2.323       .  S
Eu499       O514   2.376       .  S
Eu500       O514   2.366       .  S
Eu500       O504   2.336   1_556  S
Eu501       O503   2.331       .  S
Eu501       O516   2.364   1_556  S
Eu502       O503   2.318       .  S
Eu502       O514   2.363       .  S
Eu502       O516   2.360   1_556  S
Eu502       O504   2.315   1_556  S
C505       C1231   1.478       .  S
C506        C961   1.473       .  S
C507        C764   1.490       .  S
C508        C824   1.471       .  S
C509        C804   1.480       .  S
C510        C787   1.478       .  S
C511        C754   1.471       .  S
C512        C794   1.475       .  S
H513        O514   0.967       .  S
H515        O516   0.967       .  S
C517        C518   1.536   1_655  S
C517        C523   1.525   1_655  S
C517        C521   1.534       .  S
C517       C1099   1.517       .  S
C518        H525   1.084       .  S
C518        C519   1.369       .  D
C519        C520   1.550   1_455  S
C519        C784   1.497       .  S
C520        C524   1.560   1_655  S
C520        C522   1.550       .  S
C520        H526   1.109       .  S
C521        H527   1.084       .  S
C521        C522   1.359       .  D
C522        C897   1.486       .  S
C523        H528   1.086       .  S
C523        C524   1.364       .  D
C524        C749   1.495       .  S
C529        C530   1.538       .  S
C529        C535   1.524       .  S
C529        C533   1.534   1_655  S
C529        C999   1.519       .  S
C530        H537   1.084       .  S
C530        C531   1.372       .  D
C531        C532   1.553       .  S
C531        C887   1.504       .  S
C532        C536   1.550       .  S
C532        C534   1.540   1_655  S
C532        H538   1.108       .  S
C533        H539   1.083       .  S
C533        C534   1.359       .  D
C534        C757   1.467       .  S
C535        H540   1.087       .  S
C535        C536   1.360       .  D
C536        C745   1.480       .  S
C541        C542   1.541       .  S
C541        C547   1.524       .  S
C541        C545   1.538       .  S
C541       C1491   1.520       .  S
C542        H549   1.083       .  S
C542        C543   1.361       .  D
C543        C544   1.540       .  S
C543        C807   1.479       .  S
C544        C548   1.551       .  S
C544        C546   1.545       .  S
C544        H550   1.109       .  S
C545        H551   1.085       .  S
C545        C546   1.369       .  D
C546        C857   1.494       .  S
C547        H552   1.086       .  S
C547        C548   1.363       .  D
C548        C741   1.485       .  S
C553        C554   1.538       .  S
C553        C559   1.525       .  S
C553        C557   1.536       .  S
C553       C1347   1.520       .  S
C554        H561   1.083       .  S
C554        C555   1.361       .  D
C555        C556   1.535       .  S
C555        C847   1.464       .  S
C556        C560   1.547       .  S
C556        C558   1.547       .  S
C556        H562   1.110       .  S
C557        H563   1.085       .  S
C557        C558   1.369       .  D
C558        C814   1.492       .  S
C559        H564   1.087       .  S
C559        C560   1.361       .  D
C560        C737   1.477       .  S
C565        C566   1.534   1_655  S
C565        C571   1.530       .  S
C565        C569   1.538       .  S
C565        C989   1.520       .  S
C566        H573   1.086       .  S
C566        C567   1.366       .  D
C567        C568   1.546   1_455  S
C567        C767   1.493       .  S
C568        C572   1.559       .  S
C568        C570   1.539       .  S
C568        H574   1.110       .  S
C569        H575   1.083       .  S
C569        C570   1.359       .  D
C570        C877   1.469       .  S
C571        H576   1.086       .  S
C571        C572   1.366       .  D
C572        C733   1.496       .  S
C577        C578   1.534       .  S
C577        C583   1.524       .  S
C577        C581   1.540   1_655  S
C577       C1089   1.523       .  S
C578        H585   1.085       .  S
C578        C579   1.369       .  D
C579        C580   1.545       .  S
C579        C907   1.490       .  S
C580        C584   1.549       .  S
C580        C582   1.544   1_655  S
C580        H586   1.109       .  S
C581        H587   1.083       .  S
C581        C582   1.364       .  D
C582        C777   1.478       .  S
C583        H588   1.087       .  S
C583        C584   1.360       .  D
C584        C730   1.478       .  S
C589        C590   1.537       .  S
C589        C595   1.521       .  S
C589        C593   1.535       .  S
C589       C1481   1.516       .  S
C590        H597   1.086       .  S
C590        C591   1.362       .  D
C591        C592   1.546       .  S
C591        C867   1.477       .  S
C592        C596   1.551       .  S
C592        C594   1.543       .  S
C592        H598   1.109       .  S
C593        H599   1.084       .  S
C593        C594   1.370       .  D
C594        C797   1.486       .  S
C595        H600   1.087       .  S
C595        C596   1.359       .  D
C596        C726   1.479       .  S
C601        C602   1.543       .  S
C601        C607   1.527       .  S
C601        C605   1.536       .  S
C601       C1334   1.521       .  S
C602        H609   1.081       .  S
C602        C603   1.359       .  D
C603        C604   1.534       .  S
C603        C827   1.467       .  S
C604        C608   1.551       .  S
C604        C606   1.545       .  S
C604        H610   1.110       .  S
C605        H611   1.086       .  S
C605        C606   1.366       .  D
C606        C837   1.495       .  S
C607        H612   1.086       .  S
C607        C608   1.366       .  D
C608        C722   1.486       .  S
O613        C624   1.299       .  A
O613       Eu649   2.509       .  S
O614        C625   1.295       .  A
O614       Eu648   2.490       .  S
O615        C626   1.296       .  A
O615       Eu621   2.495       .  S
O616        C627   1.291       .  A
O616       Eu621   2.468       .  S
O617        C627   1.292       .  A
O617       Eu651   2.457       .  S
O618        C626   1.287       .  A
O618       Eu650   2.432       .  S
O619        C625   1.292       .  A
O619       Eu621   2.453       .  S
O620        C624   1.287       .  A
O620       Eu621   2.436       .  S
Eu621       O631   2.361       .  S
Eu621       O623   2.348       .  S
Eu621       O622   2.364       .  S
Eu621       O629   2.346       .  S
O622       Eu651   2.363       .  S
O622       Eu648   2.366       .  S
O623       Eu649   2.345       .  S
O623       Eu650   2.353       .  S
C624       C1413   1.482       .  S
C625        C725   1.490       .  S
C626        C982   1.478       .  S
C627       C1210   1.479       .  S
H628        O629   0.964       .  S
O629       Eu650   2.354       .  S
O629       Eu648   2.362       .  S
H630        O631   0.966       .  S
O631       Eu649   2.361       .  S
O631       Eu651   2.347       .  S
O632        C655   1.301       .  A
O632       Eu648   2.520       .  S
O633        C656   1.295       .  A
O633       Eu649   2.494       .  S
O634        C657   1.299       .  A
O634       Eu650   2.509       .  S
O635        C658   1.294       .  A
O635       Eu651   2.486       .  S
O636        C659   1.298       .  A
O636       Eu651   2.504       .  S
O637        C660   1.294       .  A
O637       Eu650   2.483       .  S
O638        C661   1.295       .  A
O638       Eu652   2.490       .  S
O639        C662   1.299       .  A
O639       Eu652   2.512       .  S
O640        C661   1.291       .  A
O640       Eu650   2.449       .  S
O641        C662   1.287       .  A
O641       Eu651   2.432       .  S
O642        C657   1.286       .  A
O642       Eu648   2.425       .  S
O643        C660   1.291       .  A
O643       Eu649   2.449       .  S
O644        C659   1.287       .  A
O644       Eu649   2.426       .  S
O645        C658   1.290       .  A
O645       Eu648   2.443       .  S
O646        C655   1.283       .  A
O646       Eu652   2.401       .  S
O647        C656   1.289       .  A
O647       Eu652   2.437       .  S
Eu648       O666   2.340       .  S
Eu648       O654   2.348       .  S
Eu649       O653   2.354       .  S
Eu649       O664   2.369       .  S
Eu650       O664   2.375       .  S
Eu650       O654   2.343       .  S
Eu651       O653   2.355       .  S
Eu651       O666   2.356       .  S
Eu652       O653   2.338       .  S
Eu652       O664   2.366       .  S
Eu652       O666   2.348       .  S
Eu652       O654   2.355       .  S
C655       C1196   1.479       .  S
C656        C738   1.489       .  S
C657        C742   1.478       .  S
C658        C968   1.481       .  S
C659        C721   1.480       .  S
C660        C945   1.488       .  S
C661       C1252   1.489       .  S
C662        C931   1.481       .  S
H663        O664   0.965       .  S
H665        O666   0.964       .  S
O667        C678   1.301       .  A
O667       Eu703   2.523       .  S
O668        C679   1.295       .  A
O668       Eu702   2.490   1_455  S
O669        C680   1.301       .  A
O669       Eu675   2.520       .  S
O670        C681   1.296       .  A
O670       Eu675   2.497   1_545  S
O671        C681   1.292   1_554  A
O671       Eu705   2.454       .  S
O672        C680   1.287   1_655  A
O672       Eu704   2.436       .  S
O673        C679   1.292       .  A
O673       Eu675   2.449   1_545  S
O674        C678   1.287   1_556  A
O674       Eu675   2.432       .  S
Eu675       O685   2.357   1_566  S
Eu675       O677   2.354   1_556  S
Eu675       O676   2.372   1_565  S
Eu675       O683   2.349   1_455  S
O676       Eu705   2.367   1_556  S
O676       Eu702   2.372   1_455  S
O677       Eu703   2.346       .  S
O677       Eu704   2.360   1_454  S
C678       C1280   1.487       .  S
C679        C914   1.489       .  S
C680        C750   1.488       .  S
C681       C1238   1.493       .  S
H682        O683   0.963       .  S
O683       Eu704   2.350       .  S
O683       Eu702   2.363   1_565  S
H684        O685   0.964       .  S
O685       Eu703   2.351   1_545  S
O685       Eu705   2.349       .  S
O686        C709   1.300       .  A
O686       Eu702   2.514       .  S
O687        C710   1.294       .  A
O687       Eu703   2.485   1_655  S
O688        C711   1.301       .  A
O688       Eu704   2.524       .  S
O689        C712   1.296       .  A
O689       Eu705   2.495   1_556  S
O690        C713   1.299       .  A
O690       Eu705   2.510       .  S
O691        C714   1.294       .  A
O691       Eu704   2.488   1_554  S
O692        C715   1.297       .  A
O692       Eu706   2.499   1_565  S
O693        C716   1.303       .  A
O693       Eu706   2.533       .  S
O694        C715   1.290   1_556  A
O694       Eu704   2.444       .  S
O695        C716   1.287       .  A
O695       Eu705   2.431   1_655  S
O696        C711   1.287   1_545  A
O696       Eu702   2.434       .  S
O697        C714   1.291       .  A
O697       Eu703   2.447   1_655  S
O698        C713   1.287   1_565  A
O698       Eu703   2.430       .  S
O699        C712   1.292   1_655  A
O699       Eu702   2.453       .  S
O700        C709   1.287   1_554  A
O700       Eu706   2.429       .  S
O701        C710   1.290   1_545  A
O701       Eu706   2.445       .  S
Eu702       O720   2.354   1_556  S
Eu702       O708   2.349       .  S
Eu703       O707   2.360   1_465  S
Eu703       O718   2.370   1_455  S
Eu704       O718   2.375   1_556  S
Eu704       O708   2.348   1_565  S
Eu705       O707   2.353   1_455  S
Eu705       O720   2.365   1_455  S
Eu706       O707   2.346       .  S
Eu706       O718   2.375   1_545  S
Eu706       O720   2.355       .  S
Eu706       O708   2.361   1_554  S
C709       C1224   1.484       .  S
C710        C954   1.481       .  S
C711        C950   1.487       .  S
C712        C746   1.488       .  S
C713        C917   1.480       .  S
C714        C729   1.489       .  S
C715       C1266   1.491       .  S
C716        C734   1.491       .  S
H717        O718   0.966       .  S
H719        O720   0.964       .  S
C721        H723   1.086       .  S
C721        C722   1.354       .  D
C722        H724   1.086       .  S
C725        H727   1.086       .  S
C725        C726   1.348       .  D
C726        H728   1.087       .  S
C729        H731   1.086       .  S
C729        C730   1.348       .  D
C730        H732   1.087   1_655  S
C733        H735   1.086       .  S
C733        C734   1.360       .  D
C734        H736   1.086       .  S
C737        H739   1.087       .  S
C737        C738   1.350       .  D
C738        H740   1.086       .  S
C741        H743   1.087       .  S
C741        C742   1.353       .  D
C742        H744   1.086       .  S
C745        H747   1.087       .  S
C745        C746   1.349   1_655  D
C746        H748   1.086       .  S
C749        H751   1.086   1_455  S
C749        C750   1.359       .  D
C750        H752   1.086       .  S
C753        C754   1.409       .  A
C753        C758   1.391       .  A
C753        H759   1.083       .  S
C754        C755   1.402       .  A
C755        C756   1.393       .  A
C755        H760   1.083       .  S
C756        C757   1.401       .  A
C756        H761   1.076       .  S
C757        C758   1.398       .  A
C758        H762   1.084       .  S
C763        C764   1.408       .  A
C763        C768   1.406       .  A
C763        H769   1.083       .  S
C764        C765   1.408       .  A
C765        C766   1.394       .  A
C765        H770   1.083       .  S
C766        C767   1.404       .  A
C766        H771   1.083       .  S
C767        C768   1.408       .  A
C768        H772   1.081       .  S
C773        C774   1.404       .  A
C773        C778   1.401       .  A
C773        H779   1.083       .  S
C774        C775   1.410       .  A
C775        C776   1.398       .  A
C775        H780   1.083       .  S
C776        C777   1.399       .  A
C776        H781   1.083       .  S
C777        C778   1.405       .  A
C778        H782   1.081       .  S
C783        C784   1.407       .  A
C783        C788   1.400       .  A
C783        H789   1.080       .  S
C784        C785   1.410       .  A
C785        C786   1.395       .  A
C785        H790   1.081       .  S
C786        C787   1.402       .  A
C786        H791   1.083       .  S
C787        C788   1.405       .  A
C788        H792   1.083       .  S
C793        C794   1.404       .  A
C793        C798   1.399       .  A
C793        H799   1.083       .  S
C794        C795   1.405       .  A
C795        C796   1.389       .  A
C795        H800   1.083       .  S
C796        C797   1.404       .  A
C796        H801   1.082       .  S
C797        C798   1.407       .  A
C798        H802   1.080       .  S
C803        C804   1.403       .  A
C803        C808   1.401       .  A
C803        H809   1.083       .  S
C804        C805   1.409       .  A
C805        C806   1.398       .  A
C805        H810   1.083       .  S
C806        C807   1.399       .  A
C806        H811   1.083       .  S
C807        C808   1.407       .  A
C808        H812   1.080       .  S
C813        C814   1.407       .  A
C813        C818   1.401       .  A
C813        H819   1.081       .  S
C814        C815   1.407       .  A
C815        C816   1.395       .  A
C815        H820   1.082       .  S
C816        C817   1.405       .  A
C816        H821   1.083       .  S
C817        C818   1.406       .  A
C818        H822   1.083       .  S
C823        C824   1.408       .  A
C823        C828   1.395       .  A
C823        H829   1.084       .  S
C824        C825   1.401       .  A
C825        C826   1.397       .  A
C825        H830   1.083       .  S
C826        C827   1.403       .  A
C826        H831   1.083       .  S
C827        C828   1.397       .  A
C828        H832   1.083       .  S
C833        C834   1.408       .  A
C833        C838   1.405       .  A
C833        H839   1.083       .  S
C834        C835   1.408       .  A
C835        C836   1.398       .  A
C835        H840   1.083       .  S
C836        C837   1.406       .  A
C836        H841   1.083       .  S
C837        C838   1.407       .  A
C838        H842   1.081       .  S
C843        C844   1.409       .  A
C843        C848   1.391       .  A
C843        H849   1.083       .  S
C844        C845   1.401       .  A
C845        C846   1.397       .  A
C845        H850   1.083       .  S
C846        C847   1.404       .  A
C846        H851   1.080       .  S
C847        C848   1.395       .  A
C848        H852   1.084       .  S
C853        C854   1.404       .  A
C853        C858   1.397       .  A
C853        H859   1.083       .  S
C854        C855   1.403       .  A
C855        C856   1.397       .  A
C855        H860   1.083       .  S
C856        C857   1.408       .  A
C856        H861   1.080       .  S
C857        C858   1.409       .  A
C858        H862   1.082       .  S
C863        C864   1.404       .  A
C863        C868   1.402       .  A
C863        H869   1.083       .  S
C864        C865   1.411       .  A
C865        C866   1.398       .  A
C865        H870   1.083       .  S
C866        C867   1.399       .  A
C866        H871   1.083       .  S
C867        C868   1.405       .  A
C868        H872   1.080       .  S
C873        C874   1.403       .  A
C873        C878   1.399       .  A
C873        H879   1.083       .  S
C874        C875   1.409       .  A
C875        C876   1.394       .  A
C875        H880   1.083       .  S
C876        C877   1.396       .  A
C876        H881   1.083       .  S
C877        C878   1.405       .  A
C878        H882   1.082       .  S
C883        C884   1.404       .  A
C883        C888   1.398       .  A
C883        H889   1.083       .  S
C884        C885   1.405       .  A
C885        C886   1.403       .  A
C885        H890   1.083       .  S
C886        C887   1.409       .  A
C886        H891   1.079       .  S
C887        C888   1.410       .  A
C888        H892   1.081       .  S
C893        C894   1.405       .  A
C893        C898   1.402       .  A
C893        H899   1.083       .  S
C894        C895   1.409       .  A
C895        C896   1.396       .  A
C895        H900   1.083       .  S
C896        C897   1.402       .  A
C896        H901   1.083       .  S
C897        C898   1.405       .  A
C898        H902   1.076       .  S
C903        C904   1.404       .  A
C903        C908   1.394       .  A
C903        H909   1.083       .  S
C904        C905   1.405       .  A
C905        C906   1.399       .  A
C905        H910   1.083       .  S
C906        C907   1.407       .  A
C906        H911   1.081       .  S
C907        C908   1.407       .  A
C908        H912   1.082       .  S
C913        H915   1.087   1_545  S
C913        C914   1.348       .  D
C914        H916   1.086       .  S
C917        H919   1.086       .  S
C917        C918   1.354       .  D
C918        H920   1.086       .  S
C921        C922   1.410       .  A
C921        C926   1.394       .  A
C921        H927   1.083       .  S
C922        C923   1.403       .  A
C923        C924   1.386       .  A
C923        H928   1.080       .  S
C924        C925   1.405       .  A
C924        H929   1.083       .  S
C925        C926   1.401       .  A
C926        H930   1.083       .  S
C931        H933   1.086       .  S
C931        C932   1.355       .  D
C932        H934   1.086       .  S
C935        C936   1.410       .  A
C935        C940   1.397       .  A
C935        H941   1.077       .  S
C936        C937   1.408       .  A
C937        C938   1.397       .  A
C937        H942   1.083       .  S
C938        C939   1.403       .  A
C938        H943   1.083       .  S
C939        C940   1.404       .  A
C940        H944   1.083       .  S
C945        H947   1.086       .  S
C945        C946   1.347       .  D
C946        H948   1.087       .  S
C949        H951   1.086   1_565  S
C949        C950   1.357       .  D
C950        H952   1.086       .  S
C953        H955   1.087       .  S
C953        C954   1.346   1_545  D
C954        H956   1.086       .  S
C957        C958   1.409       .  A
C957        C962   1.391       .  A
C957        H963   1.079       .  S
C958        C959   1.406       .  A
C959        C960   1.393       .  A
C959        H964   1.083       .  S
C960        C961   1.403       .  A
C960        H965   1.083       .  S
C961        C962   1.404       .  A
C962        H966   1.083       .  S
C967        H969   1.087       .  S
C967        C968   1.347       .  D
C968        H970   1.086       .  S
C971        C972   1.411       .  A
C971        C976   1.395       .  A
C971        H977   1.078       .  S
C972        C973   1.405       .  A
C973        C974   1.391       .  A
C973        H978   1.083       .  S
C974        C975   1.406       .  A
C974        H979   1.083       .  S
C975        C976   1.402       .  A
C976        H980   1.083       .  S
C981        H983   1.087       .  S
C981        C982   1.353       .  D
C982        H984   1.086       .  S
C985        C986   1.401   1_455  A
C985        C990   1.396       .  A
C985        H991   1.083       .  S
C986        C987   1.403       .  A
C987        C988   1.389       .  A
C987        H992   1.083       .  S
C988        C989   1.407       .  A
C988        H993   1.078       .  S
C989        C990   1.410   1_655  A
C990        H994   1.083       .  S
C995        C996   1.402   1_455  A
C995       C1000   1.391       .  A
C995       H1001   1.083       .  S
C996        C997   1.403       .  A
C997        C998   1.393       .  A
C997       H1002   1.083       .  S
C998        C999   1.406       .  A
C998       H1003   1.083       .  S
C999       C1000   1.410   1_655  A
C1000      H1004   1.078       .  S
C1005      C1006   1.402       .  A
C1005      C1010   1.399       .  A
C1005      H1011   1.083       .  S
C1006      C1007   1.411       .  A
C1007      C1008   1.393       .  A
C1007      H1012   1.083       .  S
C1008      C1009   1.398       .  A
C1008      H1013   1.084       .  S
C1009      C1010   1.404       .  A
C1010      H1014   1.079       .  S
C1015      C1016   1.407       .  A
C1015      C1020   1.397       .  A
C1015      H1021   1.080       .  S
C1016      C1017   1.410       .  A
C1017      C1018   1.396       .  A
C1017      H1022   1.081       .  S
C1018      C1019   1.402       .  A
C1018      H1023   1.083       .  S
C1019      C1020   1.403       .  A
C1020      H1024   1.084       .  S
C1025      C1026   1.409       .  A
C1025      C1030   1.393       .  A
C1025      H1031   1.083       .  S
C1026      C1027   1.401       .  A
C1027      C1028   1.390       .  A
C1027      H1032   1.083       .  S
C1028      C1029   1.398       .  A
C1028      H1033   1.074       .  S
C1029      C1030   1.401       .  A
C1030      H1034   1.084       .  S
C1035      C1036   1.404       .  A
C1035      C1040   1.392       .  A
C1035      H1041   1.083       .  S
C1036      C1037   1.407       .  A
C1037      C1038   1.404       .  A
C1037      H1042   1.083       .  S
C1038      C1039   1.408       .  A
C1038      H1043   1.080       .  S
C1039      C1040   1.407       .  A
C1040      H1044   1.082       .  S
C1045      C1046   1.404       .  A
C1045      C1050   1.389       .  A
C1045      H1051   1.083       .  S
C1046      C1047   1.404       .  A
C1047      C1048   1.399       .  A
C1047      H1052   1.083       .  S
C1048      C1049   1.406       .  A
C1048      H1053   1.081       .  S
C1049      C1050   1.405       .  A
C1050      H1054   1.082       .  S
C1055      C1056   1.404       .  A
C1055      C1060   1.401       .  A
C1055      H1061   1.083       .  S
C1056      C1057   1.409       .  A
C1057      C1058   1.395       .  A
C1057      H1062   1.083       .  S
C1058      C1059   1.400       .  A
C1058      H1063   1.083       .  S
C1059      C1060   1.405       .  A
C1060      H1064   1.080       .  S
C1065      C1066   1.405       .  A
C1065      C1070   1.398       .  A
C1065      H1071   1.082       .  S
C1066      C1067   1.407       .  A
C1067      C1068   1.397       .  A
C1067      H1072   1.083       .  S
C1068      C1069   1.406       .  A
C1068      H1073   1.083       .  S
C1069      C1070   1.405       .  A
C1070      H1074   1.080       .  S
C1075      C1076   1.402       .  A
C1075      C1080   1.396       .  A
C1075      H1081   1.082       .  S
C1076      C1077   1.404       .  A
C1077      C1078   1.395       .  A
C1077      H1082   1.083       .  S
C1078      C1079   1.408       .  A
C1078      H1083   1.082       .  S
C1079      C1080   1.406       .  A
C1080      H1084   1.080       .  S
C1085      C1086   1.403       .  A
C1085      C1090   1.394       .  A
C1085      H1091   1.083       .  S
C1086      C1087   1.404   1_655  A
C1087      C1088   1.396       .  A
C1087      H1092   1.083       .  S
C1088      C1089   1.409   1_455  A
C1088      H1093   1.078       .  S
C1089      C1090   1.408       .  A
C1090      H1094   1.083       .  S
C1095      C1096   1.401       .  A
C1095      C1100   1.392       .  A
C1095      H1101   1.083       .  S
C1096      C1097   1.405   1_655  A
C1097      C1098   1.391       .  A
C1097      H1102   1.083       .  S
C1098      C1099   1.405   1_455  A
C1098      H1103   1.083       .  S
C1099      C1100   1.410       .  A
C1100      H1104   1.079       .  S
C1105      C1106   1.403       .  A
C1105      C1110   1.397       .  A
C1105      H1111   1.083       .  S
C1106      C1107   1.410       .  A
C1107      C1108   1.392       .  A
C1107      H1112   1.083       .  S
C1108      C1109   1.398       .  A
C1108      H1113   1.084       .  S
C1109      C1110   1.402       .  A
C1110      H1114   1.078       .  S
C1115      C1116   1.405       .  A
C1115      C1120   1.397       .  A
C1115      H1121   1.083       .  S
C1116      C1117   1.406       .  A
C1117      C1118   1.403       .  A
C1117      H1122   1.083       .  S
C1118      C1119   1.408       .  A
C1118      H1123   1.078       .  S
C1119      C1120   1.410       .  A
C1120      H1124   1.081       .  S
C1125      C1126   1.409       .  A
C1125      C1130   1.397       .  A
C1125      H1131   1.083       .  S
C1126      C1127   1.405       .  A
C1127      C1128   1.402       .  A
C1127      H1132   1.083       .  S
C1128      C1129   1.405       .  A
C1128      H1133   1.078       .  S
C1129      C1130   1.401       .  A
C1130      H1134   1.083       .  S
C1135      C1136   1.403       .  A
C1135      C1140   1.395       .  A
C1135      H1141   1.083       .  S
C1136      C1137   1.405       .  A
C1137      C1138   1.400       .  A
C1137      H1142   1.083       .  S
C1138      C1139   1.408       .  A
C1138      H1143   1.080       .  S
C1139      C1140   1.408       .  A
C1140      H1144   1.082       .  S
C1145      C1146   1.403       .  A
C1145      C1150   1.399       .  A
C1145      H1151   1.083       .  S
C1146      C1147   1.408       .  A
C1147      C1148   1.394       .  A
C1147      H1152   1.083       .  S
C1148      C1149   1.399       .  A
C1148      H1153   1.083       .  S
C1149      C1150   1.405       .  A
C1150      H1154   1.079       .  S
C1155      C1156   1.408       .  A
C1155      C1160   1.392       .  A
C1155      H1161   1.083       .  S
C1156      C1157   1.403       .  A
C1157      C1158   1.398       .  A
C1157      H1162   1.083       .  S
C1158      C1159   1.403       .  A
C1158      H1163   1.081       .  S
C1159      C1160   1.396       .  A
C1160      H1164   1.083       .  S
C1165      C1166   1.405       .  A
C1165      C1170   1.400       .  A
C1165      H1171   1.084       .  S
C1166      C1167   1.400       .  A
C1167      C1168   1.393       .  A
C1167      H1172   1.083       .  S
C1168      C1169   1.409       .  A
C1168      H1173   1.081       .  S
C1169      C1170   1.409       .  A
C1170      H1174   1.080       .  S
C1175      C1176   1.403       .  A
C1175      C1180   1.399       .  A
C1175      H1181   1.083       .  S
C1176      C1177   1.409       .  A
C1177      C1178   1.395       .  A
C1177      H1182   1.083       .  S
C1178      C1179   1.399       .  A
C1178      H1183   1.084       .  S
C1179      C1180   1.404       .  A
C1180      H1184   1.080       .  S
C1185      C1186   1.406       .  A
C1185      C1190   1.388       .  A
C1185      H1191   1.077       .  S
C1186      C1187   1.410       .  A
C1187      C1188   1.395       .  A
C1187      H1192   1.083       .  S
C1188      C1189   1.400       .  A
C1188      H1193   1.083       .  S
C1189      C1190   1.403       .  A
C1190      H1194   1.084       .  S
C1195      H1197   1.087       .  S
C1195      C1196   1.355       .  D
C1196      H1198   1.086       .  S
C1199      C1200   1.407       .  A
C1199      C1204   1.394       .  A
C1199      H1205   1.079       .  S
C1200      C1201   1.410       .  A
C1201      C1202   1.397       .  A
C1201      H1206   1.083       .  S
C1202      C1203   1.405       .  A
C1202      H1207   1.083       .  S
C1203      C1204   1.404       .  A
C1204      H1208   1.083       .  S
C1209      H1211   1.087       .  S
C1209      C1210   1.343       .  D
C1210      H1212   1.087       .  S
C1213      C1214   1.406       .  A
C1213      C1218   1.393       .  A
C1213      H1219   1.083       .  S
C1214      C1215   1.408   1_556  A
C1215      C1216   1.389       .  A
C1215      H1220   1.080       .  S
C1216      C1217   1.401   1_554  A
C1216      H1221   1.083       .  S
C1217      C1218   1.406       .  A
C1218      H1222   1.083       .  S
C1223      H1225   1.086   1_556  S
C1223      C1224   1.356       .  D
C1224      H1226   1.086       .  S
C1227      C1228   1.407       .  A
C1227      C1232   1.394       .  A
C1227      H1233   1.077       .  S
C1228      C1229   1.411   1_556  A
C1229      C1230   1.398       .  A
C1229      H1234   1.083       .  S
C1230      C1231   1.402       .  A
C1230      H1235   1.083       .  S
C1231      C1232   1.406   1_554  A
C1232      H1236   1.083       .  S
C1237      H1239   1.087       .  S
C1237      C1238   1.350   1_554  D
C1238      H1240   1.086       .  S
C1241      C1242   1.408       .  A
C1241      C1246   1.393       .  A
C1241      H1247   1.081       .  S
C1242      C1243   1.407       .  A
C1243      C1244   1.393       .  A
C1243      H1248   1.083       .  S
C1244      C1245   1.404       .  A
C1244      H1249   1.083       .  S
C1245      C1246   1.404       .  A
C1246      H1250   1.083       .  S
C1251      H1253   1.087       .  S
C1251      C1252   1.348       .  D
C1252      H1254   1.086       .  S
C1255      C1256   1.409       .  A
C1255      C1260   1.395       .  A
C1255      H1261   1.078       .  S
C1256      C1257   1.409   1_554  A
C1257      C1258   1.400       .  A
C1257      H1262   1.083       .  S
C1258      C1259   1.406   1_556  A
C1258      H1263   1.083       .  S
C1259      C1260   1.403       .  A
C1260      H1264   1.083       .  S
C1265      H1267   1.087       .  S
C1265      C1266   1.351   1_556  D
C1266      H1268   1.086       .  S
C1269      C1270   1.413   1_556  A
C1269      C1274   1.393       .  A
C1269      H1275   1.078       .  S
C1270      C1271   1.404       .  A
C1271      C1272   1.395       .  A
C1271      H1276   1.083       .  S
C1272      C1273   1.408   1_554  A
C1272      H1277   1.083       .  S
C1273      C1274   1.399       .  A
C1274      H1278   1.083       .  S
C1279      H1281   1.086       .  S
C1279      C1280   1.359       .  D
C1280      H1282   1.086       .  S
C1283      C1284   1.405       .  A
C1283      C1288   1.388       .  A
C1283      H1289   1.083       .  S
C1284      C1285   1.400   1_545  A
C1285      C1286   1.390       .  A
C1285      H1290   1.083       .  S
C1286      C1287   1.410   1_565  A
C1286      H1291   1.080       .  S
C1287      C1288   1.403       .  A
C1288      H1292   1.083       .  S
C1293      C1294   1.404       .  A
C1293      C1298   1.395       .  A
C1293      H1299   1.083       .  S
C1294      C1295   1.405   1_545  A
C1295      C1296   1.393       .  A
C1295      H1300   1.083       .  S
C1296      C1297   1.408   1_565  A
C1296      H1301   1.080       .  S
C1297      C1298   1.407       .  A
C1298      H1302   1.082       .  S
C1303      C1304   1.407       .  A
C1303      C1308   1.394       .  A
C1303      H1309   1.083       .  S
C1304      C1305   1.408       .  A
C1305      C1306   1.403       .  A
C1305      H1310   1.083       .  S
C1306      C1307   1.405       .  A
C1306      H1311   1.082       .  S
C1307      C1308   1.404       .  A
C1308      H1312   1.083       .  S
C1313      C1314   1.410       .  A
C1313      C1318   1.394       .  A
C1313      H1319   1.083       .  S
C1314      C1315   1.403       .  A
C1315      C1316   1.399       .  A
C1315      H1320   1.083       .  S
C1316      C1317   1.404       .  A
C1316      H1321   1.078       .  S
C1317      C1318   1.398       .  A
C1318      H1322   1.083       .  S
C1323      C1324   1.403       .  A
C1323      C1328   1.401       .  A
C1323      H1329   1.083       .  S
C1324      C1325   1.409       .  A
C1325      C1326   1.396       .  A
C1325      H1330   1.083       .  S
C1326      C1327   1.398       .  A
C1326      H1331   1.083       .  S
C1327      C1328   1.406       .  A
C1328      H1332   1.080       .  S
C1333      C1334   1.412       .  A
C1333      C1338   1.399       .  A
C1333      H1339   1.083       .  S
C1334      C1335   1.406       .  A
C1335      C1336   1.387       .  A
C1335      H1340   1.076       .  S
C1336      C1337   1.403       .  A
C1336      H1341   1.084       .  S
C1337      C1338   1.400       .  A
C1338      H1342   1.083       .  S
C1343      C1344   1.403       .  A
C1343      C1348   1.395       .  A
C1343      H1349   1.083       .  S
C1344      C1345   1.404       .  A
C1345      C1346   1.392       .  A
C1345      H1350   1.083       .  S
C1346      C1347   1.408       .  A
C1346      H1351   1.078       .  S
C1347      C1348   1.408       .  A
C1348      H1352   1.083       .  S
C1353      C1354   1.409       .  A
C1353      C1358   1.396       .  A
C1353      H1359   1.083       .  S
C1354      C1355   1.405       .  A
C1355      C1356   1.402       .  A
C1355      H1360   1.083       .  S
C1356      C1357   1.406       .  A
C1356      H1361   1.079       .  S
C1357      C1358   1.399       .  A
C1358      H1362   1.083       .  S
C1363      C1364   1.408       .  A
C1363      C1368   1.391       .  A
C1363      H1369   1.084       .  S
C1364      C1365   1.401       .  A
C1365      C1366   1.396       .  A
C1365      H1370   1.083       .  S
C1366      C1367   1.404       .  A
C1366      H1371   1.081       .  S
C1367      C1368   1.395       .  A
C1368      H1372   1.083       .  S
C1373      C1374   1.398       .  A
C1373      C1378   1.397       .  A
C1373      H1379   1.083       .  S
C1374      C1375   1.405       .  A
C1375      C1376   1.400       .  A
C1375      H1380   1.083       .  S
C1376      C1377   1.402       .  A
C1376      H1381   1.083       .  S
C1377      C1378   1.408       .  A
C1378      H1382   1.084       .  S
C1383      C1384   1.402       .  A
C1383      C1388   1.397       .  A
C1383      H1389   1.083       .  S
C1384      C1385   1.406       .  A
C1385      C1386   1.403       .  A
C1385      H1390   1.083       .  S
C1386      C1387   1.408       .  A
C1386      H1391   1.080       .  S
C1387      C1388   1.411       .  A
C1388      H1392   1.081       .  S
C1393      C1394   1.404       .  A
C1393      C1398   1.394       .  A
C1393      H1399   1.083       .  S
C1394      C1395   1.413       .  A
C1395      C1396   1.398       .  A
C1395      H1400   1.078       .  S
C1396      C1397   1.402       .  A
C1396      H1401   1.083       .  S
C1397      C1398   1.407       .  A
C1398      H1402   1.083       .  S
C1403      C1404   1.410       .  A
C1403      C1408   1.401       .  A
C1403      H1409   1.081       .  S
C1404      C1405   1.406       .  A
C1405      C1406   1.395       .  A
C1405      H1410   1.082       .  S
C1406      C1407   1.404       .  A
C1406      H1411   1.083       .  S
C1407      C1408   1.405       .  A
C1408      H1412   1.084       .  S
C1413      H1415   1.086       .  S
C1413      C1414   1.356       .  D
C1414      H1416   1.086       .  S
C1417      C1418   1.405       .  A
C1417      C1422   1.393       .  A
C1417      H1423   1.083       .  S
C1418      C1419   1.400   1_545  A
C1419      C1420   1.388       .  A
C1419      H1424   1.083       .  S
C1420      C1421   1.408   1_565  A
C1420      H1425   1.078       .  S
C1421      C1422   1.407       .  A
C1422      H1426   1.083       .  S
C1427      C1428   1.404   1_565  A
C1427      C1432   1.392       .  A
C1427      H1433   1.083       .  S
C1428      C1429   1.400       .  A
C1429      C1430   1.390       .  A
C1429      H1434   1.083       .  S
C1430      C1431   1.411       .  A
C1430      H1435   1.076       .  S
C1431      C1432   1.406   1_545  A
C1432      H1436   1.083       .  S
C1437      C1438   1.406       .  A
C1437      C1442   1.388       .  A
C1437      H1443   1.082       .  S
C1438      C1439   1.406       .  A
C1439      C1440   1.393       .  A
C1439      H1444   1.080       .  S
C1440      C1441   1.401       .  A
C1440      H1445   1.084       .  S
C1441      C1442   1.402       .  A
C1442      H1446   1.084       .  S
C1447      C1448   1.403       .  A
C1447      C1452   1.401       .  A
C1447      H1453   1.083       .  S
C1448      C1449   1.410       .  A
C1449      C1450   1.399       .  A
C1449      H1454   1.083       .  S
C1450      C1451   1.401       .  A
C1450      H1455   1.083       .  S
C1451      C1452   1.406       .  A
C1452      H1456   1.077       .  S
C1457      C1458   1.404       .  A
C1457      C1462   1.399       .  A
C1457      H1463   1.083       .  S
C1458      C1459   1.405       .  A
C1459      C1460   1.395       .  A
C1459      H1464   1.083       .  S
C1460      C1461   1.407       .  A
C1460      H1465   1.082       .  S
C1461      C1462   1.407       .  A
C1462      H1466   1.080       .  S
C1467      C1468   1.407       .  A
C1467      C1472   1.396       .  A
C1467      H1473   1.084       .  S
C1468      C1469   1.399       .  A
C1469      C1470   1.395       .  A
C1469      H1474   1.083       .  S
C1470      C1471   1.404       .  A
C1470      H1475   1.083       .  S
C1471      C1472   1.397       .  A
C1472      H1476   1.083       .  S
C1477      C1478   1.403       .  A
C1477      C1482   1.391       .  A
C1477      H1483   1.083       .  S
C1478      C1479   1.404       .  A
C1479      C1480   1.393       .  A
C1479      H1484   1.083       .  S
C1480      C1481   1.408       .  A
C1480      H1485   1.081       .  S
C1481      C1482   1.406       .  A
C1482      H1486   1.082       .  S
C1487      C1488   1.404       .  A
C1487      C1492   1.394       .  A
C1487      H1493   1.083       .  S
C1488      C1489   1.404       .  A
C1489      C1490   1.394       .  A
C1489      H1494   1.083       .  S
C1490      C1491   1.407       .  A
C1490      H1495   1.083       .  S
C1491      C1492   1.409       .  A
C1492      H1496   1.078       .  S
C1497      C1498   1.403       .  A
C1497      C1502   1.397       .  A
C1497      H1503   1.083       .  S
C1498      C1499   1.411       .  A
C1499      C1500   1.397       .  A
C1499      H1504   1.083       .  S
C1500      C1501   1.400       .  A
C1500      H1505   1.083       .  S
C1501      C1502   1.402       .  A
C1502      H1506   1.078       .  S
C1507      C1508   1.405       .  A
C1507      C1512   1.406       .  A
C1507      H1513   1.082       .  S
C1508      C1509   1.406       .  A
C1509      C1510   1.394       .  A
C1509      H1514   1.083       .  S
C1510      C1511   1.405       .  A
C1510      H1515   1.083       .  S
C1511      C1512   1.411       .  A
C1512      H1516   1.083       .  S
C1517      C1518   1.406       .  A
C1517      C1522   1.402       .  A
C1517      H1523   1.082       .  S
C1518      C1519   1.405       .  A
C1519      C1520   1.394       .  A
C1519      H1524   1.083       .  S
C1520      C1521   1.404       .  A
C1520      H1525   1.082       .  S
C1521      C1522   1.408       .  A
C1522      H1526   1.081       .  S
C1527      C1528   1.404       .  A
C1527      C1532   1.392       .  A
C1527      H1533   1.083       .  S
C1528      C1529   1.402       .  A
C1529      C1530   1.396       .  A
C1529      H1534   1.082       .  S
C1530      C1531   1.406       .  A
C1530      H1535   1.080       .  S
C1531      C1532   1.406       .  A
C1532      H1536   1.082       .  S
