geometry optimzed in LAMMPS
_audit_creation_date              2020-11-30 
_audit_creation_method            'lammps2cif' 
_symmetry_space_group_name_H-M    'P1' 
_symmetry_Int_Tables_number       1 
_symmetry_cell_setting            triclinic 
loop_ 
_symmetry_equiv_pos_as_xyz 
  x,y,z 
_cell_length_a                    36.12582451005825 
_cell_length_b                    36.09561320897061 
_cell_length_c                    36.09490825338995 
_cell_angle_alpha                 89.90388587309498 
_cell_angle_beta                  90.02784876753097 
_cell_angle_gamma                 90.01074547856972 
loop_ 
_atom_site_label 
_atom_site_type_symbol 
_atom_site_fract_x 
_atom_site_fract_y 
_atom_site_fract_z 
_atom_site_charge 
C1          C  0.74245431  0.79778535  0.76900479     0.05480
C2          C  0.74357467  0.77022789  0.79648733    -0.10670
C3          C  0.77095841  0.74264722  0.79611351     0.02980
C4          C  0.79781376  0.74313782  0.76801221    -0.09190
C5          C  0.79730065  0.77042529  0.74023372     0.05470
C6          C  0.76953507  0.79769388  0.74104027    -0.08610
H7          H  0.72301375  0.76956969  0.81816920     0.11070
H8          H  0.81917808  0.72224315  0.76721554     0.08600
H9          H  0.76839429  0.81882738  0.71986354     0.08440
C10         C  0.26874699  0.79353905  0.23829881     0.05480
C11         C  0.29599015  0.79256995  0.26604622    -0.10670
C12         C  0.29568691  0.76498736  0.29350215     0.02980
C13         C  0.26787452  0.73783402  0.29274022    -0.09190
C14         C  0.24030476  0.73824735  0.26531409     0.05470
C15         C  0.24107223  0.76615196  0.23811649    -0.08610
H16         H  0.31743279  0.81338327  0.26694309     0.11070
H17         H  0.26712164  0.71631630  0.31354107     0.08600
H18         H  0.22011130  0.76712734  0.21679925     0.08440
C19         C  0.73954515  0.76917450  0.29501567     0.05480
C20         C  0.73947423  0.74171455  0.26743840    -0.10670
C21         C  0.76671804  0.74110206  0.23964691     0.02980
C22         C  0.79423590  0.76863844  0.23962656    -0.09190
C23         C  0.79491149  0.79639603  0.26689620     0.05470
C24         C  0.76737225  0.79640815  0.29440863    -0.08610
H25         H  0.71812562  0.72079604  0.26817334     0.11070
H26         H  0.81515026  0.76788748  0.21829412     0.08600
H27         H  0.76815296  0.81770438  0.31535984     0.08440
C28         C  0.29715992  0.27002304  0.24064556     0.05480
C29         C  0.29724495  0.24263329  0.26836836    -0.10670
C30         C  0.26988108  0.24196509  0.29604402     0.02980
C31         C  0.24229123  0.26942807  0.29584888    -0.09190
C32         C  0.24166305  0.29711184  0.26842034     0.05470
C33         C  0.26928589  0.29716745  0.24103671    -0.08610
H34         H  0.31868223  0.22181377  0.26782756     0.11070
H35         H  0.22125335  0.26865222  0.31706958     0.08600
H36         H  0.26847077  0.31840346  0.21996236     0.08440
C37         C  0.73866731  0.26858804  0.24262727     0.05480
C38         C  0.73603456  0.29310160  0.27277887    -0.10670
C39         C  0.76437191  0.29509927  0.29945748     0.02980
C40         C  0.79482054  0.27114765  0.29655648    -0.09190
C41         C  0.79801039  0.24698007  0.26648256     0.05470
C42         C  0.77019433  0.24608499  0.23944809    -0.08610
H43         H  0.71202843  0.31082973  0.27495022     0.11070
H44         H  0.81713228  0.27287395  0.31656072     0.08600
H45         H  0.77386464  0.22812099  0.21583812     0.08440
C46         C  0.74105988  0.23643800  0.76502651     0.05480
C47         C  0.74236261  0.26353151  0.73699843    -0.10670
C48         C  0.76681129  0.29372734  0.73938074     0.02980
C49         C  0.79027271  0.29649245  0.77029080    -0.09190
C50         C  0.79026767  0.26905226  0.79784495     0.05470
C51         C  0.76582953  0.23901919  0.79496896    -0.08610
H52         H  0.72413891  0.26172719  0.71333897     0.11070
H53         H  0.80837430  0.32008584  0.77363383     0.08600
H54         H  0.76466534  0.21869956  0.81705046     0.08440
C55         C  0.26585448  0.79538367  0.79729358     0.05480
C56         C  0.29321243  0.76769378  0.79729751    -0.10670
C57         C  0.29381264  0.74008711  0.76986192     0.02980
C58         C  0.26632552  0.74034589  0.74227169    -0.09190
C59         C  0.23867487  0.76773919  0.74173290     0.05470
C60         C  0.23868206  0.79502972  0.76943078    -0.08610
H61         H  0.31406651  0.76821476  0.81872221     0.11070
H62         H  0.26706129  0.71920787  0.72115607     0.08600
H63         H  0.21747061  0.81606910  0.76867484     0.08440
O64         O  0.10511784  0.05721693  0.01284933    -0.85990
C65         C  0.00136290  0.06169551  0.97029800     0.90040
Mg66       Mg  0.12713732  0.00869177  0.03694608     1.58150
O67         O  0.01224234  0.10614773  0.05553497    -0.85720
O68         O  0.09442818  0.11464105  0.02907239    -0.73050
C69         C  0.99480040  0.94798302  0.15064201     0.95090
O70         O  0.05972664  0.99304308  0.97288730    -0.72870
O71         O  0.02242892  0.93516763  0.13287073    -0.80370
Mg72       Mg  0.08143590  0.05165507  0.95904585     1.57960
C73         C  0.94154934  0.09293323  0.14083718     0.95010
O74         O  0.10495720  0.10950179  0.94265600    -0.78640
H75         H  0.03749255  0.14434751  0.08663435    -0.03980
C76         C  0.97093905  0.00175995  0.05986988     0.89950
O77         O  0.11308315  0.03033243  0.09501726    -0.73150
O78         O  0.03108045  0.07527284  0.98080046    -0.85910
O79         O  0.94189015  0.10509475  0.10759726    -0.78720
C80         C  0.94710236  0.15181489  0.99413900     0.95130
C81         C  0.09320379  0.14284994  0.94235771     0.94980
Mg82       Mg  0.00687446  0.03717349  0.12656317     1.57950
O83         O  0.98444229  0.98147173  0.14736469    -0.78640
O84         O  0.02829774  0.09556589  0.11307418    -0.72880
O85         O  0.98073507  0.14896732  0.98415330    -0.78720
O86         O  0.13338610  0.02370704  0.93479639    -0.80430
O87         O  0.10823224  0.94382343  0.10517085    -0.78750
C88         C  0.02602099  0.11673742  0.08503636     0.89410
O89         O  0.05569998  0.01364842  0.10501731    -0.85900
O90         O  0.98101104  0.03163043  0.07345017    -0.86000
O91         O  0.99208245  0.97350812  0.05894090    -0.73060
Mg92       Mg  0.03635770  0.12821733  0.00703185     1.57970
O93         O  0.93411128  0.13370170  0.02155410    -0.80430
H94         H  0.14305458  0.08819412  0.03864117    -0.04160
O95         O  0.07439264  0.98216113  0.03107101    -0.85700
H96         H  0.04904147  0.94450506  0.99935034    -0.03980
H97         H  0.08611558  0.03938952  0.14344733    -0.04160
C98         C  0.06092303  0.97192112  0.00119691     0.89390
C99         C  0.11558258  0.08664378  0.02686983     0.89980
C100        C  0.08491276  0.02779621  0.11588160     0.90020
H101        H  0.94365798  0.99984724  0.04772066    -0.04140
O102        O  0.97295424  0.06036335  0.99118287    -0.73160
Mg103      Mg  0.05055613  0.95992465  0.08116491     1.58000
H104        H  0.99973545  0.04986659  0.94285812    -0.04150
C105        C  0.15145277  0.99633808  0.94790294     0.95010
O106        O  0.15151561  0.95925291  0.06376183    -0.80390
C107        C  0.14162958  0.94382038  0.09364709     0.95070
O108        O  0.06322590  0.15262590  0.95758167    -0.80380
Mg109      Mg  0.95875645  0.08187636  0.04972762     1.58180
O110        O  0.14836014  0.98619462  0.98149827    -0.78710
O111        O  0.95705648  0.06304772  0.15045469    -0.80410
C112        C  0.14059069  0.30390384  0.93271996     0.05480
C113        C  0.12844344  0.26743039  0.93828660    -0.10670
C114        C  0.14313071  0.23854838  0.91701815     0.02980
C115        C  0.16988956  0.24590297  0.89035744    -0.09190
C116        C  0.18145324  0.28243192  0.88346423     0.05470
C117        C  0.16723880  0.31139110  0.90533114    -0.08610
H118        H  0.10722531  0.26160862  0.95872100     0.11070
H119        H  0.18149021  0.22296539  0.87492977     0.08600
H120        H  0.17606529  0.33965270  0.90033959     0.08440
C121        C  0.93201556  0.14178259  0.30193011     0.05480
C122        C  0.90360186  0.16756361  0.30890498    -0.10670
C123        C  0.88104612  0.18059567  0.27969915     0.02980
C124        C  0.88701097  0.16667927  0.24378287    -0.09190
C125        C  0.91540968  0.14177468  0.23680128     0.05470
C126        C  0.93802833  0.12930447  0.26569655    -0.08610
H127        H  0.89867187  0.17693131  0.33696703     0.11070
H128        H  0.86920623  0.17378206  0.22087441     0.08600
H129        H  0.95958684  0.10916671  0.26015718     0.08440
C130        C  0.30266320  0.93360710  0.14061668     0.05480
C131        C  0.31006712  0.90578594  0.16699264    -0.10670
C132        C  0.28099127  0.88395315  0.18128903     0.02980
C133        C  0.24449488  0.89134705  0.17004546    -0.09190
C134        C  0.23723541  0.91830279  0.14350325     0.05470
C135        C  0.26617214  0.93952498  0.12878064    -0.08610
H136        H  0.33831464  0.90050530  0.17559797     0.11070
H137        H  0.22144849  0.87611429  0.18172589     0.08600
H138        H  0.26036331  0.96022119  0.10775990     0.08440
O139        O  0.97357593  0.55014088  0.56076141    -0.85990
C140        C  0.91005219  0.53680704  0.46996254     0.90040
Mg141      Mg  0.01123194  0.59571021  0.56487384     1.58150
O142        O  0.98524165  0.47499641  0.47411225    -0.85720
O143        O  0.97650093  0.48931310  0.56045289    -0.73050
C144        C  0.09349315  0.60351062  0.40092080     0.95090
O145        O  0.93822671  0.61162545  0.50715983    -0.72870
O146        O  0.08893411  0.62475873  0.42863292    -0.80370
Mg147      Mg  0.91792549  0.56393347  0.54423690     1.57960
C148        C  0.05031641  0.45716160  0.38178487     0.95010
O149        O  0.89084500  0.51888624  0.58211944    -0.78640
H150        H  0.01386081  0.43628028  0.50156026    -0.03980
C151        C  0.99859496  0.56585169  0.41045314     0.89950
O152        O  0.05989058  0.55903429  0.54668531    -0.73150
O153        O  0.92443602  0.52659512  0.49935679    -0.85910
O154        O  0.01640141  0.45378867  0.39124155    -0.78720
C155        C  0.90035736  0.44182780  0.43244025     0.95130
C156        C  0.88136089  0.48494791  0.57883527     0.94980
Mg157      Mg  0.06442515  0.52404076  0.44039220     1.57950
O158        O  0.08447153  0.56949937  0.40138243    -0.78640
O159        O  0.04601201  0.47539366  0.47710657    -0.72880
O160        O  0.90085196  0.45077722  0.46645873    -0.78720
O161        O  0.91056250  0.60729246  0.58911211    -0.80430
O162        O  0.08152875  0.64476633  0.51688135    -0.78750
C163        C  0.01475634  0.46090300  0.48450685     0.89410
O164        O  0.06027011  0.56180476  0.48585111    -0.85900
O165        O  0.00872670  0.53646723  0.42492176    -0.86000
O166        O  0.00701932  0.59716596  0.42408151    -0.73060
Mg167      Mg  0.93980998  0.47085597  0.51187430     1.57970
O168        O  0.92801730  0.44652352  0.41112276    -0.80430
H169        H  0.00100850  0.52147211  0.59946321    -0.04160
O170        O  0.99887851  0.61099945  0.50906131    -0.85700
H171        H  0.97052792  0.64960789  0.48122280    -0.03980
H172        H  0.09893666  0.53449103  0.51463789    -0.04160
C173        C  0.96951741  0.62533172  0.49876355     0.89390
C174        C  0.98394977  0.52059110  0.57487366     0.89980
C175        C  0.07434755  0.55151601  0.51544310     0.90020
H176        H  0.98118121  0.56484512  0.38611698    -0.04140
O177        O  0.92372929  0.52844833  0.43865810    -0.73160
Mg178      Mg  0.04387507  0.61750043  0.47183332     1.58000
H179        H  0.88576654  0.55425594  0.47095485    -0.04150
C180        C  0.93173992  0.63510803  0.59351482     0.95010
O181        O  0.05200354  0.64255049  0.57115840    -0.80390
C182        C  0.07807335  0.65437314  0.55075597     0.95070
O183        O  0.89313725  0.46452608  0.55279145    -0.80380
Mg184      Mg  0.97138933  0.49151126  0.41839948     1.58180
O185        O  0.96574215  0.63468888  0.58458994    -0.78710
O186        O  0.07073573  0.48317768  0.39367842    -0.80410
C187        C  0.73221089  0.43445056  0.39722851     0.05480
C188        C  0.72438268  0.40677901  0.37098042    -0.10670
C189        C  0.75301731  0.38432488  0.35708854     0.02980
C190        C  0.78960078  0.39085786  0.36862334    -0.09190
C191        C  0.79740114  0.41813748  0.39470584     0.05470
C192        C  0.76877571  0.43993747  0.40911300    -0.08610
H193        H  0.69609929  0.40210517  0.36213749     0.11070
H194        H  0.81226845  0.37493777  0.35714808     0.08600
H195        H  0.77488750  0.46087933  0.42972846     0.08440
C196        C  0.10099002  0.63981300  0.23274869     0.05480
C197        C  0.12834901  0.66653981  0.22528772    -0.10670
C198        C  0.15026635  0.68075989  0.25424001     0.02980
C199        C  0.14344252  0.66899288  0.29074975    -0.09190
C200        C  0.11673528  0.64218560  0.29811754     0.05470
C201        C  0.09546527  0.62753424  0.26921052    -0.08610
H202        H  0.13318235  0.67552989  0.19704408     0.11070
H203        H  0.15873647  0.68071116  0.31373308     0.08600
H204        H  0.07487962  0.60645454  0.27503189     0.08440
C205        C  0.89589969  0.80344254  0.60093450     0.05480
C206        C  0.86920167  0.81081044  0.62832366    -0.10670
C207        C  0.85476158  0.78175296  0.65005149     0.02980
C208        C  0.86627918  0.74524440  0.64297642    -0.09190
C209        C  0.89310690  0.73796588  0.61630399     0.05470
C210        C  0.90796223  0.76696649  0.59522620    -0.08610
H211        H  0.86040718  0.83905705  0.63333151     0.11070
H212        H  0.85440293  0.72218510  0.65808226     0.08600
H213        H  0.92905027  0.76120739  0.57466604     0.08440
O214        O  0.06110668  0.98664173  0.55960954    -0.85990
C215        C  0.12532081  0.00002413  0.46930712     0.90040
Mg216      Mg  0.02323106  0.94118844  0.56323475     1.58150
O217        O  0.05055745  0.06230650  0.47302712    -0.85720
O218        O  0.05855971  0.04749337  0.55939411    -0.73050
C219        C  0.94260528  0.93464268  0.39801554     0.95090
O220        O  0.09678264  0.92507042  0.50641021    -0.72870
O221        O  0.94705066  0.91314868  0.42565647    -0.80370
Mg222      Mg  0.11683877  0.97262162  0.54361740     1.57960
C223        C  0.98607038  0.08148328  0.38041929     0.95010
O224        O  0.14375632  0.01730192  0.58176121    -0.78640
H225        H  0.02179547  0.10075996  0.50054201    -0.03980
C226        C  0.03749120  0.97205039  0.40890991     0.89950
O227        O  0.97490363  0.97805292  0.54442844    -0.73150
O228        O  0.11082325  0.01013746  0.49863938    -0.85910
O229        O  0.01997017  0.08459432  0.39011040    -0.78720
C230        C  0.13620704  0.09499901  0.43217720     0.95130
C231        C  0.15355760  0.05115373  0.57861692     0.94980
Mg232      Mg  0.97141150  0.01379058  0.43827790     1.57950
O233        O  0.95155616  0.96868011  0.39874568    -0.78640
O234        O  0.98974763  0.06199732  0.47549736    -0.72880
O235        O  0.13535449  0.08578144  0.46614168    -0.78720
O236        O  0.12360904  0.92925611  0.58867702    -0.80430
O237        O  0.95341046  0.89238278  0.51419134    -0.78750
C238        C  0.02098339  0.07633281  0.48328522     0.89410
O239        O  0.97508142  0.97560088  0.48358506    -0.85900
O240        O  0.02716920  0.00139455  0.42322938    -0.86000
O241        O  0.02898231  0.94067860  0.42245865    -0.73060
Mg242      Mg  0.09578334  0.06593089  0.51116218     1.57970
O243        O  0.10854828  0.09100875  0.41068710    -0.80430
H244        H  0.03350551  0.01527672  0.59809640    -0.04160
O245        O  0.03614013  0.92607221  0.50754154    -0.85700
H246        H  0.06456078  0.88728863  0.48018228    -0.03980
H247        H  0.93620970  0.00283850  0.51203104    -0.04160
C248        C  0.06551843  0.91155362  0.49766077     0.89390
C249        C  0.05078251  0.01618218  0.57367615     0.89980
C250        C  0.96075202  0.98575319  0.51305410     0.90020
H251        H  0.05518905  0.97314560  0.38480028    -0.04140
O252        O  0.11197694  0.00879764  0.43791808    -0.73160
Mg253      Mg  0.99157372  0.91998111  0.46963259     1.58000
H254        H  0.14943887  0.98234615  0.47041533    -0.04150
C255        C  0.10225494  0.90160235  0.59325825     0.95010
O256        O  0.98225642  0.89444546  0.56888450    -0.80390
C257        C  0.95646685  0.88265378  0.54811875     0.95070
O258        O  0.14220401  0.07178762  0.55247611    -0.80380
Mg259      Mg  0.06473028  0.04626209  0.41734291     1.58180
O260        O  0.06835892  0.90204604  0.58386533    -0.78710
O261        O  0.96555097  0.05528939  0.39184117    -0.80410
C262        C  0.13822038  0.73360822  0.60379317     0.05480
C263        C  0.16504566  0.72654810  0.63118491    -0.10670
C264        C  0.17944253  0.75581129  0.65260263     0.02980
C265        C  0.16763495  0.79221760  0.64525120    -0.09190
C266        C  0.14069802  0.79917225  0.61852401     0.05470
C267        C  0.12595910  0.76996668  0.59775834    -0.08610
H268        H  0.17406173  0.69838314  0.63636064     0.11070
H269        H  0.17946193  0.81546147  0.66003205     0.08600
H270        H  0.10484503  0.77549204  0.57711658     0.08440
C271        C  0.30452278  0.10171666  0.39395146     0.05480
C272        C  0.31141436  0.12982541  0.36776004    -0.10670
C273        C  0.28226796  0.15237888  0.35480746     0.02980
C274        C  0.24610107  0.14552438  0.36744397    -0.09190
C275        C  0.23924164  0.11809250  0.39371525     0.05470
C276        C  0.26836230  0.09616757  0.40705117    -0.08610
H277        H  0.33936137  0.13448293  0.35791968     0.11070
H278        H  0.22287762  0.16109089  0.35659777     0.08600
H279        H  0.26289936  0.07485902  0.42753451     0.08440
C280        C  0.93405990  0.89491235  0.23001609     0.05480
C281        C  0.90606754  0.86851285  0.22373270    -0.10670
C282        C  0.88394839  0.85571690  0.25329879     0.02980
C283        C  0.89112631  0.86877666  0.28927558    -0.09190
C284        C  0.91841329  0.89529959  0.29551499     0.05470
C285        C  0.93989556  0.90843613  0.26597944    -0.08610
H286        H  0.90118436  0.85835800  0.19592523     0.11070
H287        H  0.87595818  0.85808455  0.31283529     0.08600
H288        H  0.96111132  0.92908220  0.27097577     0.08440
O289        O  0.51329747  0.43091678  0.97898852    -0.85990
C290        C  0.47122131  0.53482973  0.97421125     0.90040
Mg291      Mg  0.53735238  0.40902611  0.02754977     1.58150
O292        O  0.55626723  0.52356600  0.92956348    -0.85720
O293        O  0.52960617  0.44134025  0.92151297    -0.73050
C294        C  0.65142197  0.54142909  0.08730999     0.95090
O295        O  0.47358666  0.47666873  0.04307318    -0.72870
O296        O  0.63355699  0.51384864  0.10022654    -0.80370
Mg297      Mg  0.45962906  0.45482425  0.98459940     1.57960
C298        C  0.64167025  0.59428876  0.94154735     0.95010
O299        O  0.44296972  0.43118771  0.92700736    -0.78640
H300        H  0.58714719  0.49815127  0.89132496    -0.03980
C301        C  0.56094711  0.56537421  0.03358673     0.89950
O302        O  0.59542192  0.42293695  0.00573364    -0.73150
O303        O  0.48154803  0.50502925  0.96068534    -0.85910
O304        O  0.60832511  0.59393848  0.92982187    -0.78720
C305        C  0.49501359  0.58861613  0.88369290     0.95130
C306        C  0.44272082  0.44274448  0.89357679     0.94980
Mg307      Mg  0.62747920  0.52916323  0.99809737     1.57950
O308        O  0.64832971  0.55171310  0.05374636    -0.78640
O309        O  0.61378202  0.50749972  0.93991287    -0.72880
O310        O  0.48498856  0.55498417  0.88672429    -0.78720
O311        O  0.43525641  0.40301561  0.01275324    -0.80430
O312        O  0.60566306  0.42794197  0.09211963    -0.78750
C313        C  0.58568210  0.50972572  0.91888416     0.89410
O314        O  0.60574425  0.48041081  0.02202320    -0.85900
O315        O  0.57449605  0.55520562  0.00373840    -0.86000
O316        O  0.55987763  0.54425362  0.06190555    -0.73060
Mg317      Mg  0.50773028  0.49943105  0.90771149     1.57970
O318        O  0.52241386  0.60167503  0.90169012    -0.80430
H319        H  0.53892816  0.39273779  0.94822031    -0.04160
O320        O  0.53170367  0.46192126  0.05376875    -0.85700
H321        H  0.50018075  0.48740576  0.09147130    -0.03980
H322        H  0.64391485  0.44968840  0.99632587    -0.04160
C323        C  0.50192114  0.47546511  0.06408813     0.89390
C324        C  0.52727586  0.42027640  0.94961676     0.89980
C325        C  0.61640966  0.45106326  0.00800900     0.90020
H326        H  0.54891740  0.59272041  0.03541185    -0.04140
O327        O  0.49220533  0.56319339  0.97537358    -0.73160
Mg328      Mg  0.58186550  0.48571931  0.07573955     1.58000
H329        H  0.44385774  0.53656127  0.98616865    -0.04150
C330        C  0.44831594  0.38490123  0.04011776     0.95010
O331        O  0.56403068  0.38475810  0.07706667    -0.80390
C332        C  0.59396243  0.39456894  0.09235578     0.95070
O333        O  0.45826043  0.47251392  0.88349780    -0.80380
Mg334      Mg  0.55064078  0.57723136  0.95349604     1.58180
O335        O  0.48189239  0.38792828  0.05021683    -0.78710
O336        O  0.65155810  0.57889750  0.97146726    -0.80410
C337        C  0.43295441  0.39523580  0.73304588     0.05480
C338        C  0.43828934  0.40739841  0.76950815    -0.10670
C339        C  0.41699661  0.39256209  0.79833265     0.02980
C340        C  0.39053266  0.36561704  0.79092843    -0.09190
C341        C  0.38390175  0.35401129  0.75438031     0.05470
C342        C  0.40580300  0.36838608  0.72548630    -0.08610
H343        H  0.45855326  0.42877164  0.77536307     0.11070
H344        H  0.37502911  0.35392949  0.81381474     0.08600
H345        H  0.40097597  0.35957091  0.69721076     0.08440
C346        C  0.64026557  0.23315622  0.10338894     0.05480
C347        C  0.66624813  0.22578085  0.13157337    -0.10670
C348        C  0.68033305  0.25493324  0.15344554     0.02980
C349        C  0.66924566  0.29144280  0.14573844    -0.09190
C350        C  0.64308915  0.29867246  0.11846093     0.05470
C351        C  0.62858311  0.26968384  0.09719669    -0.08610
H352        H  0.67478985  0.19752260  0.13701480     0.11070
H353        H  0.68081864  0.31457508  0.16089431     0.08600
H354        H  0.60788197  0.27548970  0.07621366     0.08440
C355        C  0.80240803  0.60273552  0.89414611     0.05480
C356        C  0.76592819  0.59776462  0.90641709    -0.10670
C357        C  0.73730875  0.61944476  0.89171967     0.02980
C358        C  0.74493747  0.64597269  0.86483506    -0.09190
C359        C  0.78148624  0.65228647  0.85309867     0.05470
C360        C  0.81017363  0.62998137  0.86733507    -0.08610
H361        H  0.75989017  0.57741515  0.92770579     0.11070
H362        H  0.72218414  0.66170531  0.85321297     0.08600
H363        H  0.83843775  0.63449787  0.85837339     0.08440
O364        O  0.06010845  0.47501996  0.04977213    -0.85990
C365        C  0.97031367  0.41023330  0.03634684     0.90040
Mg366      Mg  0.06345185  0.51285232  0.09519302     1.58150
O367        O  0.97361905  0.48533386  0.97421643    -0.85720
O368        O  0.06001423  0.47789622  0.98895139    -0.73050
C369        C  0.89819638  0.59304557  0.10190489     0.95090
O370        O  0.00696021  0.43899649  0.11125918    -0.72870
O371        O  0.92582255  0.58861926  0.12335810    -0.80370
Mg372      Mg  0.04433504  0.41912833  0.06375999     1.57960
C373        C  0.88052082  0.54911606  0.95536843     0.95010
O374        O  0.08256791  0.39224940  0.01913895    -0.78640
H375        H  0.00078807  0.51437253  0.93562602    -0.03980
C376        C  0.90932725  0.49794382  0.06456724     0.89950
O377        O  0.04452327  0.56120107  0.05830089    -0.73150
O378        O  0.99951308  0.42500225  0.02621815    -0.85910
O379        O  0.89046694  0.51528517  0.95217726    -0.78720
C380        C  0.93369384  0.39940667  0.94126454     0.95130
C381        C  0.07953285  0.38262344  0.98524288     0.94980
Mg382      Mg  0.93839932  0.56421772  0.02275066     1.57950
O383        O  0.89888433  0.58399540  0.06790583    -0.78640
O384        O  0.97560848  0.54619998  0.97444391    -0.72880
O385        O  0.96759844  0.40069020  0.95041196    -0.78720
O386        O  0.08927323  0.41250242  0.10711910    -0.80430
O387        O  0.01420040  0.58248731  0.14394590    -0.78750
C388        C  0.98360056  0.51502194  0.96011403     0.89410
O389        O  0.98372912  0.56079612  0.06082724    -0.85900
O390        O  0.92368169  0.50827888  0.03521268    -0.86000
O391        O  0.92276317  0.50657724  0.09591955    -0.73060
Mg392      Mg  0.01209404  0.44043029  0.97047555     1.57970
O393        O  0.91178485  0.42669067  0.94559253    -0.80430
H394        H  0.09853093  0.50295426  0.02127947    -0.04160
O395        O  0.00782326  0.49969737  0.11029933    -0.85700
H396        H  0.98048123  0.47101679  0.14900171    -0.03980
H397        H  0.01203343  0.59982721  0.03350696    -0.04160
C398        C  0.99802761  0.47020844  0.12477329     0.89390
C399        C  0.07420172  0.48555557  0.02028966     0.89980
C400        C  0.01313039  0.57525260  0.05061915     0.90020
H401        H  0.88528072  0.48015872  0.06350539    -0.04140
O402        O  0.93886643  0.42342941  0.02772354    -0.73160
Mg403      Mg  0.96982303  0.54416819  0.11647089     1.58000
H404        H  0.97159448  0.38602313  0.05396045    -0.04150
C405        C  0.09365386  0.43383638  0.13478530     0.95010
O406        O  0.06889705  0.55376101  0.14190411    -0.80390
C407        C  0.04808577  0.57949775  0.15367166     0.95070
O408        O  0.05358559  0.39423132  0.96455552    -0.80380
Mg409      Mg  0.91805839  0.47063596  0.99035329     1.58180
O410        O  0.08412524  0.46771266  0.13434147    -0.78710
O411        O  0.89188577  0.56972649  0.98147295    -0.80410
C412        C  0.73032068  0.60211783  0.14091884     0.05480
C413        C  0.72388132  0.63003965  0.16732622    -0.10670
C414        C  0.75336209  0.65210126  0.18033499     0.02980
C415        C  0.78939933  0.64492591  0.16748680    -0.09190
C416        C  0.79578471  0.61767650  0.14097940     0.05470
C417        C  0.76633661  0.59626536  0.12763027    -0.08610
H418        H  0.69603059  0.63492494  0.17730544     0.11070
H419        H  0.81287857  0.66006815  0.17833713     0.08600
H420        H  0.77144167  0.57508885  0.10698953     0.08440
C421        C  0.10357077  0.39715035  0.30269893     0.05480
C422        C  0.13095347  0.37031735  0.30973316    -0.10670
C423        C  0.15247311  0.35610404  0.28046402     0.02980
C424        C  0.14522661  0.36809000  0.24408717    -0.09190
C425        C  0.11852510  0.39503886  0.23717353     0.05470
C426        C  0.09765506  0.40959923  0.26637089    -0.08450
H427        H  0.13604808  0.36116386  0.33788146     0.11070
H428        H  0.16008138  0.35640289  0.22083313     0.08600
H429        H  0.07703358  0.43072776  0.26086516     0.08440
C430        C  0.89464949  0.23094819  0.93252656     0.05480
C431        C  0.86938088  0.22473315  0.90343416    -0.10670
C432        C  0.85749190  0.25431973  0.88068876     0.02980
C433        C  0.87212413  0.28990123  0.88719406    -0.09190
C434        C  0.89653672  0.29625207  0.91631170     0.05470
C435        C  0.90787198  0.26690175  0.93901853    -0.08610
H436        H  0.85919659  0.19696046  0.89838820     0.11070
H437        H  0.86550597  0.31317353  0.86959771     0.08600
H438        H  0.92725053  0.27195200  0.96139172     0.08440
O439        O  0.56026565  0.06223990  0.98460393    -0.85990
C440        C  0.47007653  0.12649319  0.99787261     0.90040
Mg441      Mg  0.56383960  0.02409509  0.93933870     1.58150
O442        O  0.47379249  0.05159152  0.06025094    -0.85720
O443        O  0.56011862  0.05968188  0.04546707    -0.73050
C444        C  0.39888650  0.94320417  0.93293202     0.95090
O445        O  0.50680153  0.09752295  0.92318891    -0.72870
O446        O  0.42652713  0.94734266  0.91144911    -0.80370
Mg447      Mg  0.54425231  0.11803243  0.97045181     1.57960
C448        C  0.38100636  0.98703973  0.07928195     0.95010
O449        O  0.58255761  0.14536897  0.01533693    -0.78640
H450        H  0.50120417  0.02290466  0.09895423    -0.03980
C451        C  0.40974549  0.03819304  0.96982564     0.89950
O452        O  0.54525913  0.97585948  0.97654024    -0.73150
O453        O  0.49944420  0.11211058  0.00810432    -0.85910
O454        O  0.39069531  0.02097147  0.08233071    -0.78720
C455        C  0.43295839  0.13722801  0.09283894     0.95130
C456        C  0.57940960  0.15495032  0.04929448     0.94980
Mg457      Mg  0.43912584  0.97225399  0.01199061     1.57950
O458        O  0.39969923  0.95234872  0.96689143    -0.78640
O459        O  0.47622895  0.99072765  0.06025600    -0.72880
O460        O  0.46691964  0.13639408  0.08376309    -0.78720
O461        O  0.58889460  0.12465853  0.92644037    -0.80430
O462        O  0.51521161  0.95365290  0.89082601    -0.78750
C463        C  0.48400398  0.02202881  0.07446374     0.89410
O464        O  0.48445276  0.97580267  0.97391039    -0.85900
O465        O  0.42409970  0.02803833  0.99926273    -0.86000
O466        O  0.42323081  0.02946387  0.93852713    -0.73060
Mg467      Mg  0.51194404  0.09687503  0.06389207     1.57970
O468        O  0.41145143  0.10961201  0.08861788    -0.80430
H469        H  0.59879242  0.03467345  0.01333300    -0.04160
O470        O  0.50814921  0.03677484  0.92411154    -0.85700
H471        H  0.48034479  0.06527876  0.88558397    -0.03980
H472        H  0.51301302  0.93715937  0.00152516    -0.04160
C473        C  0.49803814  0.06621730  0.90972044     0.89390
C474        C  0.57436935  0.05193297  0.01418195     0.89980
C475        C  0.51395257  0.96162922  0.98425567     0.90020
H476        H  0.38563929  0.05589220  0.97076240    -0.04140
O477        O  0.43875742  0.11299521  0.00653127    -0.73160
Mg478      Mg  0.47046143  0.99198800  0.91811999     1.58000
H479        H  0.47109686  0.15063859  0.98015287    -0.04150
C480        C  0.59299956  0.10309214  0.89886247     0.95010
O481        O  0.56971026  0.98275918  0.89287333    -0.80390
C482        C  0.54914569  0.95673558  0.88122836     0.95070
O483        O  0.55331956  0.14331805  0.06979691    -0.80380
Mg484      Mg  0.41813371  0.06572271  0.04400061     1.58180
O485        O  0.58381796  0.06913547  0.89982190    -0.78710
O486        O  0.39259642  0.96644492  0.05327843    -0.80410
C487        C  0.60055592  0.13990524  0.73004810     0.05480
C488        C  0.62920471  0.16536249  0.72289936    -0.10670
C489        C  0.65211469  0.17786469  0.75192242     0.02980
C490        C  0.64515501  0.16559421  0.78821811    -0.09190
C491        C  0.61696950  0.14028187  0.79540753     0.05470
C492        C  0.59467979  0.12730398  0.76639739    -0.08610
H493        H  0.63399166  0.17498820  0.69485841     0.11070
H494        H  0.66117798  0.17615335  0.81126731     0.08600
H495        H  0.57285873  0.10747674  0.77208636     0.08440
C496        C  0.39499230  0.30567527  0.10086338     0.05480
C497        C  0.36887163  0.31233946  0.12898934    -0.10670
C498        C  0.35586316  0.28296331  0.15124273     0.02980
C499        C  0.36837002  0.24680165  0.14407015    -0.09190
C500        C  0.39459666  0.24016893  0.11662472     0.05470
C501        C  0.40798819  0.26951669  0.09499608    -0.08610
H502        H  0.35912649  0.34029010  0.13389307     0.11070
H503        H  0.35747918  0.22341865  0.15940159     0.08600
H504        H  0.42843386  0.26423276  0.07367616     0.08440
C505        C  0.23052171  0.93534171  0.89490830     0.05480
C506        C  0.22377618  0.90710406  0.86891393    -0.10670
C507        C  0.25305807  0.88474675  0.85603154     0.02980
C508        C  0.28920660  0.89191361  0.86854645    -0.09190
C509        C  0.29592498  0.91946084  0.89464487     0.05470
C510        C  0.26667458  0.94119658  0.90791189    -0.08610
H511        H  0.19583668  0.90221652  0.85914577     0.11070
H512        H  0.31252590  0.87652361  0.85773646     0.08600
H513        H  0.27203330  0.96260301  0.92825318     0.08440
O514        O  0.54956514  0.47617695  0.56209725    -0.85990
C515        C  0.53608896  0.56643813  0.62622043     0.90040
Mg516      Mg  0.59496744  0.47259332  0.52423601     1.58150
O517        O  0.47391135  0.56240478  0.55132198    -0.85720
O518        O  0.48877371  0.47610811  0.55957381    -0.73050
C519        C  0.60134075  0.63743066  0.44281441     0.95090
O520        O  0.61099718  0.52965276  0.59766157    -0.72870
O521        O  0.62283652  0.60987038  0.44740275    -0.80370
Mg522      Mg  0.56356069  0.49229866  0.61783016     1.57960
C523        C  0.45487426  0.65486441  0.48666397     0.95010
O524        O  0.51903134  0.45404168  0.64481954    -0.78640
H525        H  0.43549722  0.53475756  0.52259469    -0.03980
C526        C  0.56409337  0.62678735  0.53796619     0.89950
O527        O  0.55811470  0.49109748  0.47576774    -0.73150
O528        O  0.52600785  0.53709257  0.61172591    -0.85910
O529        O  0.45178737  0.64515900  0.52058277    -0.78720
C530        C  0.44104283  0.60331504  0.63678823     0.95130
C531        C  0.48521586  0.45706269  0.65462857     0.94980
Mg532      Mg  0.52235717  0.59711431  0.47199746     1.57950
O533        O  0.56736363  0.63668379  0.45187225    -0.78640
O534        O  0.47421722  0.55982739  0.49047019    -0.72880
O535        O  0.45025738  0.56936473  0.63608789    -0.78720
O536        O  0.60688769  0.44741301  0.62474424    -0.80430
O537        O  0.64361225  0.52160313  0.45421753    -0.78750
C538        C  0.45989731  0.55206615  0.52174547     0.89410
O539        O  0.56052007  0.55193487  0.47576193    -0.85900
O540        O  0.53481335  0.61224372  0.52777804    -0.86000
O541        O  0.59545969  0.61339017  0.52943764    -0.73060
Mg542      Mg  0.47028700  0.52434906  0.59666663     1.57970
O543        O  0.44524850  0.62478729  0.60910101    -0.80430
H544        H  0.52103605  0.43749092  0.53462013    -0.04160
O545        O  0.61001669  0.52836208  0.53696927    -0.85700
H546        H  0.64869659  0.55595250  0.56534836    -0.03980
H547        H  0.53334199  0.52335039  0.43690767    -0.04160
C548        C  0.62449194  0.53837742  0.56634988     0.89390
C549        C  0.52008311  0.46194915  0.55182432     0.89980
C550        C  0.55040435  0.52241827  0.46149523     0.90020
H551        H  0.56295143  0.65096911  0.55554522    -0.04140
O552        O  0.52738762  0.59779521  0.61276777    -0.73160
Mg553      Mg  0.61607775  0.56612888  0.49220716     1.58000
H554        H  0.55369974  0.56536802  0.65041382    -0.04150
C555        C  0.63451467  0.44290315  0.60340253     0.95010
O556        O  0.64168148  0.46699750  0.48331848    -0.80390
C557        C  0.65340356  0.48773853  0.45742996     0.95070
O558        O  0.46452631  0.48310958  0.64322941    -0.80380
Mg559      Mg  0.49000726  0.61812218  0.56537154     1.58180
O560        O  0.63407259  0.45223789  0.56945929    -0.78710
O561        O  0.48096896  0.64346662  0.46608671    -0.80410
C562        C  0.64055753  0.80537532  0.43388527     0.05480
C563        C  0.66710858  0.81185953  0.40607087    -0.10670
C564        C  0.68013748  0.78239740  0.38400719     0.02980
C565        C  0.66717439  0.74633512  0.39109278    -0.09190
C566        C  0.64052288  0.73991522  0.41821404     0.05470
C567        C  0.62715325  0.76933650  0.43962034    -0.08610
H568        H  0.67717191  0.83973123  0.40125838     0.11070
H569        H  0.67803140  0.72286118  0.37596680     0.08600
H570        H  0.60640367  0.76419222  0.46070228     0.08440
C571        C  0.43359181  0.64190535  0.80493742     0.05480
C572        C  0.40557248  0.66814070  0.81168480    -0.10670
C573        C  0.38310075  0.68104949  0.78242640     0.02980
C574        C  0.38994613  0.66829048  0.74628709    -0.09190
C575        C  0.41730023  0.64197255  0.73958158     0.05470
C576        C  0.43913339  0.62870121  0.76881573    -0.08610
H577        H  0.40093472  0.67806894  0.83961068     0.11070
H578        H  0.37446459  0.67908872  0.72296549     0.08600
H579        H  0.46038744  0.60819963  0.76346447     0.08440
C580        C  0.80239294  0.43175056  0.63918483     0.05480
C581        C  0.80932457  0.40389589  0.66561807    -0.10670
C582        C  0.77993702  0.38250530  0.67987474     0.02980
C583        C  0.74358987  0.39034483  0.66833985    -0.09190
C584        C  0.73679000  0.41747326  0.64175359     0.05470
C585        C  0.76607266  0.43823359  0.62715252    -0.08610
H586        H  0.83746027  0.39837428  0.67444798     0.11070
H587        H  0.72025513  0.37562657  0.68008295     0.08600
H588        H  0.76063912  0.45919021  0.60629148     0.08440
O589        O  0.47809578  0.02198655  0.60514503    -0.85990
C590        C  0.47347606  0.06423986  0.50122500     0.90040
Mg591      Mg  0.52660894  0.99790528  0.62703409     1.58150
O592        O  0.42897619  0.97901904  0.51254260    -0.85720
O593        O  0.42069753  0.00559936  0.59473159    -0.73050
C594        C  0.58676408  0.88408342  0.49461317     0.95090
O595        O  0.54216898  0.06187949  0.55943465    -0.72870
O596        O  0.59961297  0.90195950  0.52218450    -0.80370
Mg597      Mg  0.48369627  0.07576212  0.58124944     1.57960
C598        C  0.44104116  0.89369268  0.44190727     0.95010
O599        O  0.42604324  0.09239697  0.60478927    -0.78640
H600        H  0.39079882  0.94799685  0.53799054    -0.03980
C601        C  0.53294944  0.97454767  0.47069685     0.89950
O602        O  0.50489797  0.93979047  0.61309253    -0.73150
O603        O  0.45989614  0.05387094  0.53102567    -0.85910
O604        O  0.42932720  0.92705103  0.44228004    -0.78720
C605        C  0.38312262  0.04029138  0.44741208     0.95130
C606        C  0.39265944  0.09258051  0.59319287     0.94980
Mg607      Mg  0.49754475  0.90783201  0.50691034     1.57950
O608        O  0.55322236  0.88709688  0.48435294    -0.78640
O609        O  0.43937229  0.92143635  0.52859589    -0.72880
O610        O  0.38607662  0.05029646  0.48103712    -0.78720
O611        O  0.51177304  0.10009996  0.63310585    -0.80430
O612        O  0.59142562  0.92974413  0.60811864    -0.78750
C613        C  0.41833484  0.94953305  0.52639412     0.89410
O614        O  0.52138293  0.92951646  0.55566374    -0.85900
O615        O  0.50313596  0.96092836  0.48089335    -0.86000
O616        O  0.56122271  0.97564707  0.49180588    -0.73060
Mg617      Mg  0.40699734  0.02751817  0.53661615     1.57970
O618        O  0.40118171  0.01293178  0.43438737    -0.80430
H619        H  0.44731593  0.99627705  0.64335528    -0.04160
O620        O  0.55290811  0.00369485  0.57414767    -0.85700
H621        H  0.59056410  0.03537513  0.54867407    -0.03980
H622        H  0.49564872  0.89125395  0.58638592    -0.04160
C623        C  0.56319589  0.03355415  0.56061640     0.89390
C624        C  0.44874361  0.00795595  0.61579951     0.89980
C625        C  0.50730114  0.91880345  0.58500054     0.90020
H626        H  0.53478084  0.98661822  0.44333691    -0.04140
O627        O  0.47472316  0.04325890  0.47288558    -0.73160
Mg628      Mg  0.57501113  0.95358586  0.55034241     1.58000
H629        H  0.48541130  0.09164407  0.49947367    -0.04150
C630        C  0.53909727  0.08699649  0.65121427     0.95010
O631        O  0.57605338  0.97119161  0.65133434    -0.80390
C632        C  0.59154833  0.94137536  0.64149952     0.95070
O633        O  0.38266133  0.07692791  0.56348762    -0.80380
Mg634      Mg  0.45293861  0.98476179  0.45887611     1.58180
O635        O  0.54917374  0.05339998  0.64816575    -0.78710
O636        O  0.47098755  0.88379835  0.45717127    -0.80410
C637        C  0.39337790  0.73288891  0.43328436     0.05480
C638        C  0.40563243  0.76936758  0.43841743    -0.10670
C639        C  0.39091973  0.79813637  0.41691666     0.02980
C640        C  0.36400966  0.79067081  0.39043750    -0.09190
C641        C  0.35231546  0.75412240  0.38394545     0.05470
C642        C  0.36657406  0.72526960  0.40606153    -0.08610
H643        H  0.42695142  0.77528493  0.45872314     0.11070
H644        H  0.35238433  0.81354187  0.37484178     0.08600
H645        H  0.35765821  0.69699627  0.40139435     0.08440
C646        C  0.23200811  0.10344615  0.64028267     0.05480
C647        C  0.26842536  0.09785258  0.62816058    -0.10670
C648        C  0.29737138  0.11892868  0.64300739     0.02980
C649        C  0.29013171  0.14544418  0.66992725    -0.09190
C650        C  0.25364575  0.15235994  0.68149731     0.05470
C651        C  0.22462271  0.13066777  0.66709875    -0.08610
H652        H  0.27416136  0.07752870  0.60683276     0.11070
H653        H  0.31311589  0.16073119  0.68164826     0.08600
H654        H  0.19639803  0.13568084  0.67590191     0.08440
C655        C  0.60265930  0.89547085  0.80297285     0.05480
C656        C  0.63053670  0.86922694  0.81045623    -0.10670
C657        C  0.65229482  0.85488582  0.78137781     0.02980
C658        C  0.64477533  0.86595313  0.74481093    -0.09190
C659        C  0.61775280  0.89234119  0.73745799     0.05470
C660        C  0.59661344  0.90712032  0.76639290    -0.08610
H661        H  0.63589494  0.86073501  0.83875848     0.11070
H662        H  0.65992699  0.85421212  0.72176993     0.08600
H663        H  0.57585236  0.92800870  0.76050513     0.08440
C664        C  0.26482429  0.24271324  0.73802155     0.05480
C665        C  0.23752357  0.24369055  0.76568371    -0.10670
C666        C  0.23785003  0.27127093  0.79305791     0.02980
C667        C  0.26571574  0.29837243  0.79225343    -0.09190
C668        C  0.29327427  0.29788069  0.76487471     0.05470
C669        C  0.29244974  0.27006382  0.73774660    -0.08610
H670        H  0.21600148  0.22294810  0.76651246     0.11070
H671        H  0.26657526  0.31987069  0.81299598     0.08600
H672        H  0.31333733  0.26911238  0.71638717     0.08440
C673        C  0.24597019  0.18217238  0.70861874    -0.14080
C674        C  0.26680656  0.21320851  0.70946283    -0.29260
H675        H  0.22325802  0.17799315  0.72771111     0.14940
H676        H  0.28776358  0.21691679  0.68822563     0.15520
C677        C  0.60671320  0.91938936  0.67061587    -0.10920
C678        C  0.61293182  0.90540185  0.70020829    -0.12480
C679        C  0.36376863  0.10803636  0.61517247    -0.10920
C680        C  0.33444104  0.11442478  0.62950902    -0.12480
C681        C  0.40452541  0.83525703  0.42092392    -0.10920
C682        C  0.41891754  0.86468068  0.42684678    -0.12480
C683        C  0.62579164  0.83548232  0.45592375    -0.10920
C684        C  0.61011326  0.85871435  0.47435097    -0.12480
C685        C  0.42850045  0.61810842  0.67133352    -0.10920
C686        C  0.42280116  0.62895141  0.70235102    -0.12480
C687        C  0.42871000  0.68042899  0.47065231    -0.10920
C688        C  0.41056502  0.70338163  0.45428130    -0.12480
C689        C  0.61616875  0.67188632  0.42995094    -0.10920
C690        C  0.62723088  0.70279226  0.42394737    -0.12480
C691        C  0.66868860  0.42974309  0.61837502    -0.10920
C692        C  0.69953153  0.42348616  0.62927779    -0.12480
C693        C  0.55930955  0.11007997  0.67688613    -0.10920
C694        C  0.57790228  0.12542191  0.70023250    -0.12480
C695        C  0.33318616  0.92516100  0.90748192    -0.10920
C696        C  0.36426506  0.93081337  0.91817063    -0.12480
C697        C  0.58174636  0.91262730  0.83259540    -0.10920
C698        C  0.56525275  0.93066915  0.85555262    -0.12480
C699        C  0.60543204  0.11769367  0.86413176    -0.10920
C700        C  0.61115928  0.12800245  0.83289381    -0.12480
C701        C  0.41821532  0.17184728  0.10525230    -0.10920
C702        C  0.40747652  0.20291113  0.11093267    -0.12480
C703        C  0.90951941  0.33339490  0.92256980    -0.10920
C704        C  0.91961435  0.36461565  0.92857140    -0.12480
C705        C  0.86376901  0.60579693  0.11677996    -0.10920
C706        C  0.83289080  0.61182941  0.12780065    -0.12480
C707        C  0.11293935  0.40782366  0.19988747    -0.10920
C708        C  0.10682623  0.41887788  0.16902004    -0.12480
C709        C  0.83178835  0.58150894  0.91126626    -0.10920
C710        C  0.85476701  0.56503903  0.92929829    -0.12480
C711        C  0.60547410  0.18057782  0.06554004    -0.10920
C712        C  0.62339553  0.20349526  0.08225706    -0.12480
C713        C  0.35409852  0.32694250  0.74650609    -0.14080
C714        C  0.32283458  0.32638269  0.76694977    -0.29260
H715        H  0.35847554  0.30765837  0.72400513     0.14940
H716        H  0.31900063  0.34779800  0.78769157     0.15520
C717        C  0.46952980  0.43088277  0.68034417    -0.10920
C718        C  0.45356137  0.41262601  0.70345504    -0.12480
C719        C  0.70018197  0.58008016  0.12620247    -0.10920
C720        C  0.67687930  0.56166804  0.11059532    -0.12480
C721        C  0.67068889  0.60948749  0.91948450    -0.10920
C722        C  0.70015551  0.61546974  0.90521504    -0.12480
C723        C  0.40971200  0.33577324  0.07869826    -0.10920
C724        C  0.42519204  0.35921890  0.06030541    -0.12480
C725        C  0.61598553  0.36543912  0.10737912    -0.10920
C726        C  0.62998297  0.33586414  0.11353447    -0.12480
C727        C  0.47464834  0.61181201  0.85817469    -0.10920
C728        C  0.45602383  0.62728936  0.83489744    -0.12480
C729        C  0.42118770  0.40614873  0.83541582    -0.10920
C730        C  0.42738219  0.42061799  0.86472844    -0.12480
C731        C  0.35762917  0.06063156  0.42418068    -0.10920
C732        C  0.33438833  0.07924495  0.40865614    -0.12480
C733        C  0.93003537  0.91976173  0.36349813    -0.10920
C734        C  0.92418973  0.90868538  0.33258260    -0.12480
C735        C  0.11717733  0.86738164  0.60653889    -0.10920
C736        C  0.12811524  0.83650300  0.61278820    -0.12480
C737        C  0.17922127  0.06694749  0.60474914    -0.10920
C738        C  0.20232841  0.08294426  0.62294977    -0.12480
C739        C  0.17088286  0.10724306  0.41740792    -0.10920
C740        C  0.20197377  0.11269756  0.40665770    -0.12480
C741        C  0.93069135  0.85655321  0.56391721    -0.10920
C742        C  0.91290388  0.83320599  0.58013121    -0.12480
C743        C  0.08003791  0.62299115  0.20306691    -0.10920
C744        C  0.06379212  0.60527902  0.17974513    -0.12480
C745        C  0.67948785  0.47199410  0.43171436    -0.10920
C746        C  0.70276142  0.45569445  0.41402604    -0.12480
C747        C  0.12140138  0.70369239  0.58315512    -0.10920
C748        C  0.10371248  0.68036512  0.56687425    -0.12480
C749        C  0.91653762  0.66950644  0.60584976    -0.10920
C750        C  0.90562545  0.70053714  0.61122994    -0.12480
C751        C  0.08283814  0.41383214  0.33260597    -0.10920
C752        C  0.06647854  0.43149347  0.35587784    -0.12480
C753        C  0.11168497  0.62958782  0.33554908    -0.10920
C754        C  0.10613340  0.61865760  0.36656893    -0.12480
C755        C  0.85557004  0.46875961  0.60465197    -0.10920
C756        C  0.83235167  0.45239680  0.62243199    -0.12480
C757        C  0.83496251  0.42329760  0.40678665    -0.10920
C758        C  0.86602879  0.42903357  0.41741472    -0.12480
C759        C  0.35529370  0.97097957  0.10537708    -0.10920
C760        C  0.33230459  0.95452348  0.12345591    -0.12480
C761        C  0.95335002  0.12559467  0.33182170    -0.10920
C762        C  0.96996933  0.10770694  0.35485293    -0.12480
C763        C  0.20846212  0.29018196  0.85355436    -0.14080
C764        C  0.20919265  0.26942146  0.82248430    -0.29260
H765        H  0.22765414  0.31281036  0.85776613     0.14940
H766        H  0.18785565  0.24856375  0.81875470     0.15520
C767        C  0.12347051  0.33357369  0.95340323    -0.10920
C768        C  0.10549971  0.35680380  0.96946277    -0.12480
C769        C  0.20051915  0.95765984  0.90946793    -0.10920
C770        C  0.17712868  0.97615386  0.92482713    -0.12480
C771        C  0.20011723  0.92289593  0.13014025    -0.10920
C772        C  0.17066318  0.92890573  0.11586305    -0.12480
C773        C  0.92384065  0.17727338  0.97371914    -0.10920
C774        C  0.90851104  0.20063204  0.95503234    -0.12480
C775        C  0.12960274  0.20142756  0.92136244    -0.10920
C776        C  0.11528746  0.17196818  0.92737245    -0.12480
C777        C  0.97461439  0.92474748  0.17626750    -0.10920
C778        C  0.95618049  0.90935799  0.19974879    -0.12480
C779        C  0.92012941  0.12798815  0.19986401    -0.10920
C780        C  0.92623741  0.11436447  0.17014934    -0.12480
C781        C  0.20975941  0.77019703  0.71241269    -0.14080
C782        C  0.20719032  0.74837907  0.68213561    -0.29260
H783        H  0.18943361  0.79203966  0.71592908     0.14940
H784        H  0.22520484  0.72470972  0.67852575     0.15520
C785        C  0.26792006  0.82459242  0.82633887    -0.14080
C786        C  0.24600168  0.85487992  0.82857654    -0.29260
H787        H  0.28955132  0.82103472  0.84690126     0.14940
H788        H  0.22257944  0.85846962  0.81022567     0.15520
C789        C  0.32296450  0.71095476  0.76779905    -0.14080
C790        C  0.35342546  0.70874280  0.78948699    -0.29260
H791        H  0.31920165  0.69028096  0.74633521     0.14940
H792        H  0.35728251  0.72729924  0.81268777     0.15520
C793        C  0.68204112  0.20516019  0.74469980    -0.14080
C794        C  0.71308988  0.20618398  0.76560295    -0.29260
H795        H  0.67733883  0.22518076  0.72283690     0.14940
H796        H  0.71729999  0.18462610  0.78618451     0.15520
C797        C  0.81384803  0.27475873  0.83084819    -0.14080
C798        C  0.83104005  0.24728076  0.84961408    -0.29260
H799        H  0.81774626  0.30340533  0.83860986     0.14940
H800        H  0.82629209  0.21874255  0.84140495     0.15520
C801        C  0.76460899  0.32283821  0.71023730    -0.14080
C802        C  0.78713844  0.35259305  0.70730643    -0.29260
H803        H  0.74261625  0.31950952  0.69002667     0.14940
H804        H  0.81139752  0.35530482  0.72472615     0.15520
C805        C  0.70934188  0.26992711  0.21374095    -0.14080
C806        C  0.70714731  0.24754599  0.18379673    -0.29260
H807        H  0.68862448  0.29142163  0.21712481     0.14940
H808        H  0.72501289  0.22363876  0.18100032     0.15520
C809        C  0.83166403  0.22478030  0.26033428    -0.14080
C810        C  0.85006002  0.20674055  0.28745701    -0.29260
H811        H  0.84005238  0.22243608  0.23172840     0.14940
H812        H  0.84129198  0.21015997  0.31599798     0.15520
C813        C  0.76486282  0.32298859  0.32961343    -0.14080
C814        C  0.74505941  0.35467713  0.32982720    -0.29260
H815        H  0.78490776  0.31843483  0.35159782     0.14940
H816        H  0.72385751  0.35996154  0.30925006     0.15520
C817        C  0.32615740  0.26801000  0.21138959    -0.14080
C818        C  0.32836328  0.28995457  0.18107073    -0.29260
H819        H  0.34673318  0.24640357  0.21494636     0.14940
H820        H  0.31000278  0.31336299  0.17746341     0.15520
C821        C  0.26788649  0.21274449  0.32517615    -0.14080
C822        C  0.28944038  0.18217955  0.32720389    -0.29260
H823        H  0.24653495  0.21648998  0.34596527     0.14940
H824        H  0.31253551  0.17829623  0.30853429     0.15520
C825        C  0.18201431  0.32836909  0.28783580    -0.14080
C826        C  0.21234107  0.32601309  0.26605960    -0.29260
H827        H  0.17834593  0.31015885  0.31140110     0.14940
H828        H  0.21588825  0.34650140  0.24430900     0.15520
C829        C  0.76863641  0.71192204  0.21054100    -0.14080
C830        C  0.74659643  0.68172946  0.20815535    -0.29260
H831        H  0.79021035  0.71550243  0.18994604     0.14940
H832        H  0.72323972  0.67813027  0.22657019     0.15520
C833        C  0.82415191  0.82547591  0.26880380    -0.14080
C834        C  0.85427137  0.82788237  0.24667847    -0.29260
H835        H  0.82064261  0.84604903  0.29039422     0.14940
H836        H  0.85777279  0.80947358  0.22331192     0.15520
C837        C  0.70804894  0.78919186  0.35443058    -0.14080
C838        C  0.71043140  0.76722148  0.32420581    -0.29260
H839        H  0.72651358  0.81251575  0.35807521     0.14940
H840        H  0.68979380  0.74568871  0.32058017     0.15520
C841        C  0.26686917  0.82317864  0.20967868    -0.14080
C842        C  0.28854077  0.85369603  0.20817298    -0.29260
H843        H  0.24537087  0.81993597  0.18891584     0.14940
H844        H  0.31187818  0.85718658  0.22664422     0.15520
C845        C  0.21087286  0.70950929  0.26746016    -0.14080
C846        C  0.17994158  0.70817262  0.24648387    -0.29260
H847        H  0.21465268  0.68842552  0.28861114     0.14940
H848        H  0.17579686  0.72706467  0.22353528     0.15520
C849        C  0.32514981  0.74627564  0.35417028    -0.14080
C850        C  0.32440984  0.76685372  0.32290279    -0.29260
H851        H  0.30584827  0.72377499  0.35863169     0.14940
H852        H  0.34583322  0.78759019  0.31895312     0.15520
C853        C  0.82576863  0.76805494  0.71055581    -0.14080
C854        C  0.82746462  0.78943652  0.67985012    -0.29260
H855        H  0.84645178  0.74652745  0.71407954     0.14940
H856        H  0.80906852  0.81280203  0.67607161     0.15520
C857        C  0.76914065  0.71337798  0.82505138    -0.14080
C858        C  0.78947562  0.68199849  0.82581853    -0.29260
H859        H  0.74858259  0.71748699  0.84659075     0.14940
H860        H  0.81181434  0.67736792  0.80640632     0.15520
C861        C  0.68253513  0.82805084  0.78896905    -0.14080
C862        C  0.71294336  0.82647517  0.76718228    -0.29260
H863        H  0.67907541  0.80960556  0.81237542     0.14940
H864        H  0.71614880  0.84718686  0.74558364     0.15520
loop_ 
_geom_bond_atom_site_label_1 
_geom_bond_atom_site_label_2 
_geom_bond_distance 
_geom_bond_site_symmetry_2 
_ccdc_geom_bond_type 
C1            C2   1.404       .  A
C1            C6   1.406       .  A
C1          C862   1.488       .  S
C2            C3   1.404       .  A
C2            H7   1.079       .  S
C3            C4   1.404       .  A
C3          C857   1.486       .  S
C4            C5   1.404       .  A
C4            H8   1.080       .  S
C5            C6   1.406       .  A
C5          C853   1.488       .  S
C6            H9   1.080       .  S
C10          C11   1.404       .  A
C10          C15   1.406       .  A
C10         C841   1.487       .  S
C11          C12   1.404       .  A
C11          H16   1.080       .  S
C12          C13   1.404       .  A
C12         C850   1.485       .  S
C13          C14   1.404       .  A
C13          H17   1.080       .  S
C14          C15   1.406       .  A
C14         C845   1.487       .  S
C15          H18   1.080       .  S
C19          C20   1.406       .  A
C19          C24   1.406       .  A
C19         C838   1.491       .  S
C20          C21   1.406       .  A
C20          H25   1.080       .  S
C21          C22   1.406       .  A
C21         C829   1.491       .  S
C22          C23   1.406       .  A
C22          H26   1.079       .  S
C23          C24   1.406       .  A
C23         C833   1.491       .  S
C24          H27   1.080       .  S
C28          C29   1.405       .  A
C28          C33   1.405       .  A
C28         C817   1.490       .  S
C29          C30   1.406       .  A
C29          H34   1.079       .  S
C30          C31   1.406       .  A
C30         C821   1.490       .  S
C31          C32   1.406       .  A
C31          H35   1.080       .  S
C32          C33   1.405       .  A
C32         C826   1.489       .  S
C33          H36   1.079       .  S
C37          C38   1.407       .  A
C37          C42   1.404       .  A
C37         C805   1.487       .  S
C38          C39   1.407       .  A
C38          H43   1.081       .  S
C39          C40   1.403       .  A
C39         C813   1.484       .  S
C40          C41   1.399       .  A
C40          H44   1.084       .  S
C41          C42   1.401       .  A
C41         C809   1.473       .  S
C42          H45   1.080       .  S
C46          C47   1.407       .  A
C46          C51   1.406       .  A
C46         C794   1.488       .  S
C47          C48   1.405       .  A
C47          H52   1.080       .  S
C48          C49   1.404       .  A
C48         C801   1.488       .  S
C49          C50   1.402       .  A
C49          H53   1.081       .  S
C50          C51   1.402       .  A
C50         C797   1.479       .  S
C51          H54   1.083       .  S
C55          C56   1.406       .  A
C55          C60   1.405       .  A
C55         C785   1.490       .  S
C56          C57   1.406       .  A
C56          H61   1.080       .  S
C57          C58   1.406       .  A
C57         C789   1.490       .  S
C58          C59   1.406       .  A
C58          H62   1.080       .  S
C59          C60   1.405       .  A
C59         C781   1.489       .  S
C60          H63   1.079       .  S
O64         Mg66   2.110       .  S
O64         Mg72   2.132   1_554  S
O64          C99   1.236       .  S
C65         H104   1.081   1_455  S
C65          O78   1.240       .  S
C65         O102   1.275   1_455  A
Mg66         O95   2.143   1_545  S
Mg66        O110   2.293   1_544  S
Mg66        O106   2.212   1_545  S
Mg66         O77   2.295       .  S
O67        Mg109   2.132   1_455  S
O67         Mg92   2.111       .  S
O67          C88   1.236       .  S
O68          C99   1.270       .  A
O68         Mg92   2.296       .  S
C69          O71   1.274   1_655  A
C69          O83   1.271       .  A
C69         C777   1.445       .  S
O70          C98   1.275   1_556  A
O70         Mg72   2.310   1_565  S
O71        Mg103   2.304       .  S
Mg72         O78   2.158       .  S
Mg72         O86   2.305       .  S
Mg72         O74   2.330       .  S
C73         O111   1.264       .  A
C73          O79   1.277       .  A
C73         C780   1.424       .  S
O74          C81   1.277       .  A
H75          C88   1.081       .  S
C76         H101   1.081   1_545  S
C76          O90   1.240       .  S
C76          O91   1.275   1_545  A
O77         C100   1.270       .  A
O78         Mg92   2.143   1_556  S
O79        Mg109   2.333       .  S
C80          O93   1.275   1_556  A
C80          O85   1.272       .  A
C80         C773   1.446       .  S
C81         O108   1.265       .  A
C81         C776   1.425       .  S
Mg82         O89   2.107       .  S
Mg82         O90   2.142   1_455  S
Mg82         O83   2.293   1_445  S
Mg82         O84   2.297       .  S
Mg82        O111   2.204   1_455  S
O84          C88   1.270       .  A
O85         Mg92   2.297   1_656  S
O86         C105   1.274   1_545  A
O87         C107   1.276       .  A
O87        Mg103   2.330       .  S
O89        Mg103   2.131   1_545  S
O89         C100   1.236       .  S
O90        Mg109   2.160       .  S
O91        Mg103   2.312   1_655  S
Mg92        O108   2.214   1_554  S
O93        Mg109   2.306       .  S
H94          C99   1.081       .  S
O95        Mg103   2.157       .  S
O95          C98   1.240       .  S
H96          C98   1.081   1_556  S
H97         C100   1.081       .  S
O102       Mg109   2.310   1_556  S
C105        O110   1.271       .  A
C105        C770   1.445       .  S
O106        C107   1.265       .  A
C107        C772   1.425       .  S
C112        C113   1.402       .  A
C112        C117   1.406       .  A
C112        C767   1.446       .  S
C113        C114   1.400       .  A
C113        H118   1.084       .  S
C114        C115   1.390       .  A
C114        C775   1.435       .  S
C115        C116   1.405       .  A
C115        H119   1.083       .  S
C116        C117   1.408       .  A
C116        C763   1.482       .  S
C117        H120   1.084       .  S
C121        C122   1.409       .  A
C121        C126   1.401       .  A
C121        C761   1.448       .  S
C122        C123   1.412       .  A
C122        H127   1.083       .  S
C123        C124   1.408       .  A
C123        C810   1.491       .  S
C124        C125   1.388       .  A
C124        H128   1.078       .  S
C125        C126   1.399       .  A
C125        C779   1.434       .  S
C126        H129   1.084       .  S
C130        C131   1.408       .  A
C130        C135   1.402       .  A
C130        C760   1.449       .  S
C131        C132   1.410       .  A
C131        H136   1.083       .  S
C132        C133   1.405       .  A
C132        C842   1.485       .  S
C133        C134   1.389       .  A
C133        H137   1.083       .  S
C134        C135   1.400       .  A
C134        C771   1.434       .  S
C135        H138   1.084       .  S
O139       Mg141   2.140   1_655  S
O139       Mg147   2.155       .  S
O139        C174   1.239       .  S
C140        H179   1.081       .  S
C140        O153   1.237       .  S
C140        O177   1.270       .  A
Mg141       O170   2.135   1_455  S
Mg141       O185   2.279   1_455  S
Mg141       O181   2.254       .  S
Mg141       O152   2.297       .  S
O142       Mg184   2.155       .  S
O142       Mg167   2.139       .  S
O142        C163   1.239   1_655  S
O143        C174   1.273       .  A
O143       Mg167   2.297       .  S
C144        O146   1.272       .  A
C144        O158   1.270       .  A
C144        C754   1.429       .  S
O145        C173   1.270       .  A
O145       Mg147   2.299       .  S
O146       Mg178   2.270       .  S
Mg147       O153   2.122       .  S
Mg147       O161   2.270       .  S
Mg147       O149   2.338       .  S
C148        O186   1.269       .  A
C148        O154   1.278       .  A
C148        C752   1.441       .  S
O149        C156   1.278       .  A
H150        C163   1.081       .  S
C151        H176   1.081       .  S
C151        O165   1.237   1_655  S
C151        O166   1.270   1_655  A
O152        C175   1.273       .  A
O153       Mg167   2.135       .  S
O154       Mg184   2.338   1_455  S
C155        O168   1.273       .  A
C155        O160   1.270       .  A
C155        C758   1.430       .  S
C156        O183   1.269       .  A
C156        C755   1.441       .  S
Mg157       O164   2.140       .  S
Mg157       O165   2.135       .  S
Mg157       O158   2.279       .  S
Mg157       O159   2.297       .  S
Mg157       O186   2.254       .  S
O159        C163   1.273       .  A
O160       Mg167   2.279       .  S
O161        C180   1.272       .  A
O162        C182   1.278       .  A
O162       Mg178   2.338       .  S
O164       Mg178   2.155       .  S
O164        C175   1.239       .  S
O165       Mg184   2.123   1_455  S
O166       Mg178   2.299       .  S
Mg167       O183   2.253       .  S
O168       Mg184   2.272       .  S
H169        C174   1.081   1_455  S
O170       Mg178   2.122   1_655  S
O170        C173   1.237       .  S
H171        C173   1.081       .  S
H172        C175   1.081       .  S
O177       Mg184   2.298       .  S
C180        O185   1.270       .  A
C180        C749   1.430       .  S
O181        C182   1.269       .  A
C182        C748   1.441       .  S
C187        C188   1.406       .  A
C187        C192   1.403       .  A
C187        C746   1.446       .  S
C188        C189   1.407       .  A
C188        H193   1.084       .  S
C189        C190   1.405       .  A
C189        C814   1.483       .  S
C190        C191   1.392       .  A
C190        H194   1.083       .  S
C191        C192   1.400       .  A
C191        C757   1.437       .  S
C192        H195   1.084       .  S
C196        C197   1.407       .  A
C196        C201   1.402       .  A
C196        C743   1.446       .  S
C197        C198   1.408       .  A
C197        H202   1.084       .  S
C198        C199   1.406       .  A
C198        C846   1.485       .  S
C199        C200   1.392       .  A
C199        H203   1.083       .  S
C200        C201   1.400       .  A
C200        C753   1.437       .  S
C201        H204   1.084       .  S
C205        C206   1.407       .  A
C205        C210   1.403       .  A
C205        C742   1.447       .  S
C206        C207   1.409       .  A
C206        H211   1.083       .  S
C207        C208   1.406       .  A
C207        C854   1.486       .  S
C208        C209   1.392       .  A
C208        H212   1.083       .  S
C209        C210   1.400       .  A
C209        C750   1.437       .  S
C210        H213   1.084       .  S
O214       Mg216   2.140       .  S
O214       Mg222   2.155       .  S
O214        C249   1.239   1_565  S
C215        H254   1.081   1_545  S
C215        O228   1.237       .  S
C215        O252   1.271       .  A
Mg216       O245   2.136       .  S
Mg216       O260   2.281       .  S
Mg216       O256   2.253   1_455  S
Mg216       O227   2.297   1_455  S
O217       Mg259   2.155       .  S
O217       Mg242   2.140       .  S
O217        C238   1.239       .  S
O218        C249   1.273       .  A
O218       Mg242   2.298       .  S
C219        O221   1.273       .  A
C219        O233   1.271       .  A
C219        C733   1.431       .  S
O220        C248   1.270       .  A
O220       Mg222   2.298       .  S
O221       Mg253   2.273       .  S
Mg222       O228   2.123   1_565  S
Mg222       O236   2.269       .  S
Mg222       O224   2.334   1_565  S
C223        O261   1.270       .  A
C223        O229   1.278   1_655  A
C223        C762   1.443       .  S
O224        C231   1.277       .  A
H225        C238   1.081       .  S
C226        H251   1.081       .  S
C226        O240   1.237   1_565  S
C226        O241   1.270       .  A
O227        C250   1.273       .  A
O228       Mg242   2.135       .  S
O229       Mg259   2.343       .  S
C230        O243   1.273       .  A
C230        O235   1.270       .  A
C230        C739   1.431       .  S
C231        O258   1.269       .  A
C231        C737   1.440       .  S
Mg232       O239   2.141   1_545  S
Mg232       O240   2.134   1_655  S
Mg232       O233   2.282   1_545  S
Mg232       O234   2.297       .  S
Mg232       O261   2.256       .  S
O234        C238   1.273   1_655  A
O235       Mg242   2.279       .  S
O236        C255   1.272       .  A
O237        C257   1.278       .  A
O237       Mg253   2.340       .  S
O239       Mg253   2.155       .  S
O239        C250   1.239       .  S
O240       Mg259   2.123       .  S
O241       Mg253   2.298   1_455  S
Mg242       O258   2.254       .  S
O243       Mg259   2.274       .  S
H244        C249   1.081       .  S
O245       Mg253   2.124   1_455  S
O245        C248   1.237       .  S
H246        C248   1.081       .  S
H247        C250   1.081   1_545  S
O252       Mg259   2.300       .  S
C255        O260   1.271       .  A
C255        C735   1.430       .  S
O256        C257   1.269       .  A
C257        C741   1.442       .  S
C262        C263   1.407       .  A
C262        C267   1.402       .  A
C262        C747   1.446       .  S
C263        C264   1.409       .  A
C263        H268   1.083       .  S
C264        C265   1.406       .  A
C264        C782   1.487       .  S
C265        C266   1.392       .  A
C265        H269   1.083       .  S
C266        C267   1.400       .  A
C266        C736   1.437       .  S
C267        H270   1.084       .  S
C271        C272   1.408       .  A
C271        C276   1.404       .  A
C271        C732   1.450       .  S
C272        C273   1.410       .  A
C272        H277   1.083       .  S
C273        C274   1.406       .  A
C273        C822   1.488       .  S
C274        C275   1.392       .  A
C274        H278   1.083       .  S
C275        C276   1.401       .  A
C275        C740   1.438       .  S
C276        H279   1.084       .  S
C280        C281   1.408       .  A
C280        C285   1.403       .  A
C280        C778   1.450       .  S
C281        C282   1.411       .  A
C281        H286   1.083       .  S
C282        C283   1.406       .  A
C282        C834   1.489       .  S
C283        C284   1.393       .  A
C283        H287   1.082       .  S
C284        C285   1.401       .  A
C284        C734   1.438       .  S
C285        H288   1.084       .  S
O289       Mg291   2.109   1_556  S
O289       Mg297   2.132       .  S
O289        C324   1.236       .  S
C290        H329   1.081       .  S
C290        O303   1.240       .  S
C290        O327   1.275       .  A
Mg291       O320   2.142       .  S
Mg291       O335   2.294       .  S
Mg291       O331   2.210       .  S
Mg291       O302   2.296       .  S
O292       Mg334   2.132       .  S
O292       Mg317   2.111       .  S
O292        C313   1.236       .  S
O293        C324   1.270       .  A
O293       Mg317   2.295       .  S
C294        O296   1.274       .  A
C294        O308   1.271       .  A
C294        C720   1.445       .  S
O295        C323   1.274       .  A
O295       Mg297   2.310   1_554  S
O296       Mg328   2.302       .  S
Mg297       O303   2.157       .  S
Mg297       O311   2.302   1_556  S
Mg297       O299   2.327       .  S
C298        O336   1.265       .  A
C298        O304   1.277       .  A
C298        C721   1.426       .  S
O299        C306   1.276       .  A
H300        C313   1.081       .  S
C301        H326   1.081       .  S
C301        O315   1.240       .  S
C301        O316   1.275       .  A
O302        C325   1.270       .  A
O303       Mg317   2.144       .  S
O304       Mg334   2.332       .  S
C305        O318   1.274       .  A
C305        O310   1.271       .  A
C305        C727   1.445       .  S
C306        O333   1.265       .  A
C306        C730   1.425       .  S
Mg307       O314   2.110   1_556  S
Mg307       O315   2.143   1_556  S
Mg307       O308   2.295   1_556  S
Mg307       O309   2.296       .  S
Mg307       O336   2.213       .  S
O309        C313   1.270       .  A
O310       Mg317   2.294       .  S
O311        C330   1.274       .  A
O312        C332   1.277       .  A
O312       Mg328   2.331       .  S
O314       Mg328   2.131       .  S
O314        C325   1.236       .  S
O315       Mg334   2.158   1_554  S
O316       Mg328   2.311       .  S
Mg317       O333   2.214       .  S
O318       Mg334   2.304       .  S
H319        C324   1.081       .  S
O320       Mg328   2.157       .  S
O320        C323   1.240       .  S
H321        C323   1.081       .  S
H322        C325   1.081   1_556  S
O327       Mg334   2.310       .  S
C330        O335   1.271       .  A
C330        C724   1.444       .  S
O331        C332   1.265       .  A
C332        C725   1.425       .  S
C337        C338   1.401       .  A
C337        C342   1.406       .  A
C337        C718   1.445       .  S
C338        C339   1.400       .  A
C338        H343   1.084       .  S
C339        C340   1.390       .  A
C339        C729   1.434       .  S
C340        C341   1.405       .  A
C340        H344   1.083       .  S
C341        C342   1.408       .  A
C341        C713   1.482       .  S
C342        H345   1.084       .  S
C346        C347   1.409       .  A
C346        C351   1.402       .  A
C346        C712   1.450       .  S
C347        C348   1.411       .  A
C347        H352   1.083       .  S
C348        C349   1.405       .  A
C348        C806   1.486       .  S
C349        C350   1.389       .  A
C349        H353   1.083       .  S
C350        C351   1.400       .  A
C350        C726   1.434       .  S
C351        H354   1.084       .  S
C355        C356   1.402       .  A
C355        C360   1.407       .  A
C355        C709   1.447       .  S
C356        C357   1.400       .  A
C356        H361   1.084       .  S
C357        C358   1.390       .  A
C357        C722   1.435       .  S
C358        C359   1.405       .  A
C358        H362   1.083       .  S
C359        C360   1.409       .  A
C359        C858   1.483       .  S
C360        H363   1.083       .  S
O364       Mg366   2.139       .  S
O364       Mg372   2.155       .  S
O364        C399   1.239       .  S
C365        H404   1.081       .  S
C365        O378   1.237       .  S
C365        O402   1.270       .  A
Mg366       O395   2.136       .  S
Mg366       O410   2.281       .  S
Mg366       O406   2.252       .  S
Mg366       O377   2.297       .  S
O367       Mg409   2.156       .  S
O367       Mg392   2.140   1_655  S
O367        C388   1.239       .  S
O368        C399   1.272   1_556  A
O368       Mg392   2.296       .  S
C369        O371   1.273       .  A
C369        O383   1.271       .  A
C369        C705   1.431       .  S
O370        C398   1.270   1_455  A
O370       Mg372   2.299       .  S
O371       Mg403   2.273       .  S
Mg372       O378   2.121   1_455  S
Mg372       O386   2.267       .  S
Mg372       O374   2.335       .  S
C373        O411   1.270       .  A
C373        O379   1.278       .  A
C373        C710   1.442       .  S
O374        C381   1.277   1_554  A
H375        C388   1.081   1_455  S
C376        H401   1.081       .  S
C376        O390   1.237       .  S
C376        O391   1.270       .  A
O377        C400   1.273       .  A
O378       Mg392   2.136   1_654  S
O379       Mg409   2.341       .  S
C380        O393   1.273       .  A
C380        O385   1.269       .  A
C380        C704   1.431       .  S
C381        O408   1.269       .  A
C381        C768   1.441       .  S
Mg382       O389   2.141       .  S
Mg382       O390   2.135       .  S
Mg382       O383   2.283       .  S
Mg382       O384   2.297   1_554  S
Mg382       O411   2.254   1_554  S
O384        C388   1.273       .  A
O385       Mg392   2.273   1_655  S
O386        C405   1.272       .  A
O387        C407   1.278       .  A
O387       Mg403   2.339   1_455  S
O389       Mg403   2.155       .  S
O389        C400   1.239   1_655  S
O390       Mg409   2.125   1_554  S
O391       Mg403   2.298       .  S
Mg392       O408   2.253       .  S
O393       Mg409   2.277       .  S
H394        C399   1.081       .  S
O395       Mg403   2.124   1_455  S
O395        C398   1.237   1_455  S
H396        C398   1.081       .  S
H397        C400   1.081       .  S
O402       Mg409   2.298   1_554  S
C405        O410   1.270       .  A
C405        C708   1.429       .  S
O406        C407   1.269       .  A
C407        C744   1.441       .  S
C412        C413   1.408       .  A
C412        C417   1.403       .  A
C412        C719   1.449       .  S
C413        C414   1.410       .  A
C413        H418   1.083       .  S
C414        C415   1.406       .  A
C414        C830   1.489       .  S
C415        C416   1.393       .  A
C415        H419   1.082       .  S
C416        C417   1.401       .  A
C416        C706   1.438       .  S
C417        H420   1.084       .  S
C421        C422   1.407       .  A
C421        C426   1.402       .  A
C421        C751   1.446       .  S
C422        C423   1.409       .  A
C422        H427   1.084       .  S
C423        C424   1.406       .  A
C423        C825   1.487       .  S
C424        C425   1.392       .  A
C424        H428   1.083       .  S
C425        C426   1.399       .  A
C425        C707   1.436       .  S
C426        H429   1.084       .  S
C430        C431   1.409       .  A
C430        C435   1.403       .  A
C430        C774   1.451       .  S
C431        C432   1.413       .  A
C431        H436   1.083       .  S
C432        C433   1.409       .  A
C432        C798   1.495       .  S
C433        C434   1.391       .  A
C433        H437   1.079       .  S
C434        C435   1.400       .  A
C434        C703   1.438       .  S
C435        H438   1.084       .  S
O439       Mg441   2.142       .  S
O439       Mg447   2.156       .  S
O439        C474   1.239   1_556  S
C440        H479   1.081       .  S
C440        O453   1.237   1_556  S
C440        O477   1.271   1_556  A
Mg441       O470   2.135       .  S
Mg441       O485   2.278       .  S
Mg441       O481   2.257   1_545  S
Mg441       O452   2.297   1_545  S
O442       Mg484   2.155       .  S
O442       Mg467   2.142       .  S
O442        C463   1.239       .  S
O443        C474   1.273       .  A
O443       Mg467   2.297       .  S
C444        O446   1.273       .  A
C444        O458   1.270       .  A
C444        C696   1.431       .  S
O445        C473   1.271       .  A
O445       Mg447   2.300       .  S
O446       Mg478   2.275       .  S
Mg447       O453   2.125   1_556  S
Mg447       O461   2.277       .  S
Mg447       O449   2.349   1_556  S
C448        O486   1.270       .  A
C448        O454   1.279   1_565  A
C448        C759   1.444       .  S
O449        C456   1.279       .  A
H450        C463   1.081       .  S
C451        H476   1.081       .  S
C451        O465   1.237       .  S
C451        O466   1.271       .  A
O452        C475   1.273       .  A
O453       Mg467   2.135       .  S
O454       Mg484   2.345       .  S
C455        O468   1.273       .  A
C455        O460   1.270       .  A
C455        C701   1.431       .  S
C456        O483   1.270       .  A
C456        C711   1.445       .  S
Mg457       O464   2.142   1_554  S
Mg457       O465   2.135   1_564  S
Mg457       O458   2.279   1_554  S
Mg457       O459   2.297       .  S
Mg457       O486   2.256       .  S
O459        C463   1.273   1_565  A
O460       Mg467   2.280       .  S
O461        C480   1.273       .  A
O462        C482   1.279       .  A
O462       Mg478   2.346       .  S
O464       Mg478   2.156       .  S
O464        C475   1.239       .  S
O465       Mg484   2.124   1_556  S
O466       Mg478   2.300   1_545  S
Mg467       O483   2.256       .  S
O468       Mg484   2.274       .  S
H469        C474   1.081       .  S
O470       Mg478   2.125   1_545  S
O470        C473   1.237       .  S
H471        C473   1.081       .  S
H472        C475   1.081   1_554  S
O477       Mg484   2.300       .  S
C480        O485   1.270       .  A
C480        C699   1.432       .  S
O481        C482   1.270       .  A
C482        C698   1.444       .  S
C487        C488   1.408       .  A
C487        C492   1.404       .  A
C487        C694   1.450       .  S
C488        C489   1.409       .  A
C488        H493   1.084       .  S
C489        C490   1.405       .  A
C489        C793   1.485       .  S
C490        C491   1.392       .  A
C490        H494   1.083       .  S
C491        C492   1.402       .  A
C491        C700   1.439       .  S
C492        H495   1.084       .  S
C496        C497   1.407       .  A
C496        C501   1.404       .  A
C496        C723   1.449       .  S
C497        C498   1.410       .  A
C497        H502   1.083       .  S
C498        C499   1.406       .  A
C498        C818   1.487       .  S
C499        C500   1.392       .  A
C499        H503   1.083       .  S
C500        C501   1.401       .  A
C500        C702   1.438       .  S
C501        H504   1.084       .  S
C505        C506   1.408       .  A
C505        C510   1.404       .  A
C505        C769   1.450       .  S
C506        C507   1.410       .  A
C506        H511   1.084       .  S
C507        C508   1.406       .  A
C507        C786   1.487       .  S
C508        C509   1.392       .  A
C508        H512   1.082       .  S
C509        C510   1.401       .  A
C509        C695   1.438       .  S
C510        H513   1.084       .  S
O514       Mg516   2.139       .  S
O514       Mg522   2.155       .  S
O514        C549   1.239       .  S
C515        H554   1.081       .  S
C515        O528   1.237       .  S
C515        O552   1.270       .  A
Mg516       O545   2.136       .  S
Mg516       O560   2.279       .  S
Mg516       O556   2.252       .  S
Mg516       O527   2.296       .  S
O517       Mg559   2.155       .  S
O517       Mg542   2.139       .  S
O517        C538   1.239       .  S
O518        C549   1.273       .  A
O518       Mg542   2.298       .  S
C519        O521   1.273       .  A
C519        O533   1.271       .  A
C519        C689   1.431       .  S
O520        C548   1.270       .  A
O520       Mg522   2.298       .  S
O521       Mg553   2.271       .  S
Mg522       O528   2.122       .  S
Mg522       O536   2.266       .  S
Mg522       O524   2.332       .  S
C523        O561   1.269       .  A
C523        O529   1.278       .  A
C523        C687   1.441       .  S
O524        C531   1.277       .  A
H525        C538   1.081       .  S
C526        H551   1.081       .  S
C526        O540   1.237       .  S
C526        O541   1.270       .  A
O527        C550   1.272       .  A
O528       Mg542   2.135       .  S
O529       Mg559   2.338       .  S
C530        O543   1.273       .  A
C530        O535   1.270       .  A
C530        C685   1.431       .  S
C531        O558   1.269       .  A
C531        C717   1.440       .  S
Mg532       O539   2.140       .  S
Mg532       O540   2.135       .  S
Mg532       O533   2.282       .  S
Mg532       O534   2.297       .  S
Mg532       O561   2.254       .  S
O534        C538   1.273       .  A
O535       Mg542   2.280       .  S
O536        C555   1.272       .  A
O537        C557   1.278       .  A
O537       Mg553   2.337       .  S
O539       Mg553   2.155       .  S
O539        C550   1.239       .  S
O540       Mg559   2.124       .  S
O541       Mg553   2.298       .  S
Mg542       O558   2.253       .  S
O543       Mg559   2.273       .  S
H544        C549   1.081       .  S
O545       Mg553   2.124       .  S
O545        C548   1.237       .  S
H546        C548   1.081       .  S
H547        C550   1.081       .  S
O552       Mg559   2.298       .  S
C555        O560   1.270       .  A
C555        C691   1.428       .  S
O556        C557   1.269       .  A
C557        C745   1.441       .  S
C562        C563   1.408       .  A
C562        C567   1.403       .  A
C562        C683   1.450       .  S
C563        C564   1.411       .  A
C563        H568   1.083       .  S
C564        C565   1.406       .  A
C564        C837   1.489       .  S
C565        C566   1.393       .  A
C565        H569   1.082       .  S
C566        C567   1.400       .  A
C566        C690   1.438       .  S
C567        H570   1.084       .  S
C571        C572   1.408       .  A
C571        C576   1.403       .  A
C571        C728   1.450       .  S
C572        C573   1.410       .  A
C572        H577   1.083       .  S
C573        C574   1.406       .  A
C573        C790   1.488       .  S
C574        C575   1.392       .  A
C574        H578   1.083       .  S
C575        C576   1.401       .  A
C575        C686   1.438       .  S
C576        H579   1.084       .  S
C580        C581   1.407       .  A
C580        C585   1.402       .  A
C580        C756   1.446       .  S
C581        C582   1.410       .  A
C581        H586   1.083       .  S
C582        C583   1.406       .  A
C582        C802   1.487       .  S
C583        C584   1.392       .  A
C583        H587   1.083       .  S
C584        C585   1.399       .  A
C584        C692   1.436       .  S
C585        H588   1.084       .  S
O589       Mg591   2.109   1_545  S
O589       Mg597   2.132       .  S
O589        C624   1.236       .  S
C590        H629   1.081       .  S
C590        O603   1.240       .  S
C590        O627   1.275       .  A
Mg591       O620   2.143   1_565  S
Mg591       O635   2.294   1_565  S
Mg591       O631   2.210       .  S
Mg591       O602   2.296       .  S
O592       Mg634   2.132       .  S
O592       Mg617   2.111   1_565  S
O592        C613   1.236       .  S
O593        C624   1.269       .  A
O593       Mg617   2.294       .  S
C594        O596   1.274       .  A
C594        O608   1.272       .  A
C594        C684   1.445       .  S
O595        C623   1.274       .  A
O595       Mg597   2.310       .  S
O596       Mg628   2.303       .  S
Mg597       O603   2.157       .  S
Mg597       O611   2.304       .  S
Mg597       O599   2.329       .  S
C598        O636   1.265       .  A
C598        O604   1.276       .  A
C598        C682   1.426       .  S
O599        C606   1.276       .  A
H600        C613   1.081       .  S
C601        H626   1.081       .  S
C601        O615   1.240       .  S
C601        O616   1.275       .  A
O602        C625   1.270       .  A
O603       Mg617   2.144       .  S
O604       Mg634   2.330       .  S
C605        O618   1.274       .  A
C605        O610   1.271       .  A
C605        C731   1.445       .  S
C606        O633   1.265       .  A
C606        C679   1.426       .  S
Mg607       O614   2.110       .  S
Mg607       O615   2.142       .  S
Mg607       O608   2.296       .  S
Mg607       O609   2.296       .  S
Mg607       O636   2.213       .  S
O609        C613   1.270       .  A
O610       Mg617   2.295       .  S
O611        C630   1.274       .  A
O612        C632   1.277       .  A
O612       Mg628   2.331       .  S
O614       Mg628   2.132       .  S
O614        C625   1.236       .  S
O615       Mg634   2.158       .  S
O616       Mg628   2.311       .  S
Mg617       O633   2.214       .  S
O618       Mg634   2.304   1_545  S
H619        C624   1.081   1_565  S
O620       Mg628   2.157   1_545  S
O620        C623   1.240       .  S
H621        C623   1.081       .  S
H622        C625   1.081       .  S
O627       Mg634   2.310   1_545  S
C630        O635   1.271       .  A
C630        C693   1.445       .  S
O631        C632   1.265       .  A
C632        C677   1.425       .  S
C637        C638   1.402       .  A
C637        C642   1.407       .  A
C637        C688   1.446       .  S
C638        C639   1.400       .  A
C638        H643   1.084       .  S
C639        C640   1.390       .  A
C639        C681   1.435       .  S
C640        C641   1.405       .  A
C640        H644   1.083       .  S
C641        C642   1.409       .  A
C641        C849   1.483       .  S
C642        H645   1.084       .  S
C646        C647   1.401       .  A
C646        C651   1.406       .  A
C646        C738   1.445       .  S
C647        C648   1.400       .  A
C647        H652   1.084       .  S
C648        C649   1.390       .  A
C648        C680   1.435       .  S
C649        C650   1.405       .  A
C649        H653   1.083       .  S
C650        C651   1.408       .  A
C650        C673   1.482       .  S
C651        H654   1.083       .  S
C655        C656   1.408       .  A
C655        C660   1.402       .  A
C655        C697   1.449       .  S
C656        C657   1.411       .  A
C656        H661   1.083       .  S
C657        C658   1.405       .  A
C657        C861   1.485       .  S
C658        C659   1.389       .  A
C658        H662   1.083       .  S
C659        C660   1.400       .  A
C659        C678   1.435       .  S
C660        H663   1.084       .  S
C664        C665   1.404       .  A
C664        C669   1.404       .  A
C664        C674   1.485       .  S
C665        C666   1.404       .  A
C665        H670   1.080       .  S
C666        C667   1.404       .  A
C666        C764   1.485       .  S
C667        C668   1.403       .  A
C667        H671   1.080       .  S
C668        C669   1.404       .  A
C668        C714   1.485       .  S
C669        H672   1.080       .  S
C673        C674   1.350       .  D
C673        H675   1.082       .  S
C674        H676   1.086       .  S
C677        C678   1.202       .  T
C679        C680   1.202       .  T
C681        C682   1.202       .  T
C683        C684   1.212       .  T
C685        C686   1.204       .  T
C687        C688   1.210       .  T
C689        C690   1.204       .  T
C691        C692   1.203       .  T
C693        C694   1.212       .  T
C695        C696   1.204       .  T
C697        C698   1.212       .  T
C699        C700   1.205       .  T
C701        C702   1.204       .  T
C703        C704   1.204       .  T
C705        C706   1.204       .  T
C707        C708   1.203       .  T
C709        C710   1.210       .  T
C711        C712   1.212       .  T
C713        C714   1.350       .  D
C713        H715   1.082       .  S
C714        H716   1.086       .  S
C717        C718   1.209       .  T
C719        C720   1.212       .  T
C721        C722   1.202       .  T
C723        C724   1.212       .  T
C725        C726   1.202       .  T
C727        C728   1.212       .  T
C729        C730   1.202       .  T
C731        C732   1.212       .  T
C733        C734   1.205       .  T
C735        C736   1.204       .  T
C737        C738   1.209       .  T
C739        C740   1.205       .  T
C741        C742   1.210       .  T
C743        C744   1.210       .  T
C745        C746   1.209       .  T
C747        C748   1.210       .  T
C749        C750   1.204       .  T
C751        C752   1.210       .  T
C753        C754   1.203       .  T
C755        C756   1.210       .  T
C757        C758   1.204       .  T
C759        C760   1.211       .  T
C761        C762   1.211       .  T
C763        C764   1.350       .  D
C763        H765   1.082       .  S
C764        H766   1.086       .  S
C767        C768   1.209       .  T
C769        C770   1.212       .  T
C771        C772   1.202       .  T
C773        C774   1.213       .  T
C775        C776   1.202       .  T
C777        C778   1.212       .  T
C779        C780   1.201       .  T
C781        C782   1.351       .  D
C781        H783   1.085       .  S
C782        H784   1.082       .  S
C785        C786   1.353       .  D
C785        H787   1.085       .  S
C786        H788   1.082       .  S
C789        C790   1.352       .  D
C789        H791   1.085       .  S
C790        H792   1.082       .  S
C793        C794   1.352       .  D
C793        H795   1.083       .  S
C794        H796   1.086       .  S
C797        C798   1.351       .  D
C797        H799   1.081       .  S
C798        H800   1.086       .  S
C801        C802   1.351       .  D
C801        H803   1.085       .  S
C802        H804   1.083       .  S
C805        C806   1.353       .  D
C805        H807   1.085       .  S
C806        H808   1.083       .  S
C809        C810   1.350       .  D
C809        H811   1.080       .  S
C810        H812   1.085       .  S
C813        C814   1.349       .  D
C813        H815   1.086       .  S
C814        H816   1.083       .  S
C817        C818   1.352       .  D
C817        H819   1.085       .  S
C818        H820   1.082       .  S
C821        C822   1.352       .  D
C821        H823   1.085       .  S
C822        H824   1.082       .  S
C825        C826   1.351       .  D
C825        H827   1.082       .  S
C826        H828   1.085       .  S
C829        C830   1.352       .  D
C829        H831   1.085       .  S
C830        H832   1.082       .  S
C833        C834   1.353       .  D
C833        H835   1.085       .  S
C834        H836   1.082       .  S
C837        C838   1.353       .  D
C837        H839   1.082       .  S
C838        H840   1.085       .  S
C841        C842   1.352       .  D
C841        H843   1.085       .  S
C842        H844   1.082       .  S
C845        C846   1.350       .  D
C845        H847   1.086       .  S
C846        H848   1.082       .  S
C849        C850   1.350       .  D
C849        H851   1.082       .  S
C850        H852   1.086       .  S
C853        C854   1.351       .  D
C853        H855   1.085       .  S
C854        H856   1.082       .  S
C857        C858   1.350       .  D
C857        H859   1.086       .  S
C858        H860   1.082       .  S
C861        C862   1.353       .  D
C861        H863   1.082       .  S
C862        H864   1.085       .  S
