geometry optimzed in LAMMPS
_audit_creation_date              2020-11-30 
_audit_creation_method            'lammps2cif' 
_symmetry_space_group_name_H-M    'P1' 
_symmetry_Int_Tables_number       1 
_symmetry_cell_setting            triclinic 
loop_ 
_symmetry_equiv_pos_as_xyz 
  x,y,z 
_cell_length_a                    35.17537205 
_cell_length_b                    35.000546841043395 
_cell_length_c                    35.383421442195825 
_cell_angle_alpha                 89.80605659508069 
_cell_angle_beta                  89.70657963239319 
_cell_angle_gamma                 89.98549855002994 
loop_ 
_atom_site_label 
_atom_site_type_symbol 
_atom_site_fract_x 
_atom_site_fract_y 
_atom_site_fract_z 
_atom_site_charge 
C1          C  0.77637485  0.73235622  0.78173941     0.80200
N2          N  0.78764121  0.74843462  0.74876948    -0.78100
C3          C  0.76898849  0.77915070  0.73473746     0.82700
N4          N  0.73832834  0.79315524  0.75341869    -0.78000
C5          C  0.72674052  0.77777018  0.78690036     0.82800
N6          N  0.74591094  0.74696354  0.80050353    -0.79700
C7          C  0.27378134  0.64732852  0.20269525     0.80200
N8          N  0.29038047  0.67888975  0.18739706    -0.78100
C9          C  0.27754305  0.69366138  0.15434085     0.82700
N10         N  0.24723358  0.67727398  0.13718542    -0.78000
C11         C  0.23015613  0.64608762  0.15243334     0.82800
N12         N  0.24351315  0.63128528  0.18531071    -0.79700
C13         C  0.73432039  0.71626238  0.27190267     0.80200
N14         N  0.71193351  0.69026713  0.25415373    -0.78100
C15         C  0.72366890  0.67335674  0.22159939     0.82700
N16         N  0.75818637  0.68271644  0.20677763    -0.78000
C17         C  0.78076427  0.70891307  0.22383613     0.82800
N18         N  0.76839723  0.72543932  0.25629916    -0.79700
C19         C  0.18772164  0.18795086  0.13749962     0.80200
N20         N  0.15661718  0.20107827  0.15612655    -0.78100
C21         C  0.14213668  0.18235063  0.18656621     0.82700
N22         N  0.15946761  0.14978719  0.19842429    -0.78000
C23         C  0.19064615  0.13579134  0.18028033     0.82800
N24         N  0.20439950  0.15523467  0.14984498    -0.79700
C25         C  0.69947901  0.17199596  0.27212589     0.80200
N26         N  0.68537771  0.14831209  0.24554893    -0.78100
C27         C  0.65144494  0.15511347  0.22888231     0.82700
N28         N  0.63171978  0.18696039  0.23938726    -0.78000
C29         C  0.64531815  0.21104898  0.26631405     0.82800
N30         N  0.67966822  0.20354204  0.28213024    -0.79700
C31         C  0.66005405  0.24710699  0.73313608     0.80200
N32         N  0.67502369  0.22530583  0.76113797    -0.78100
C33         C  0.70684365  0.23633232  0.77964263     0.82700
N34         N  0.72370539  0.26994671  0.76985421    -0.78000
C35         C  0.70927472  0.29221106  0.74180192     0.82800
N36         N  0.67753876  0.28028794  0.72358188    -0.79700
C37         C  0.20960110  0.75168772  0.71576824     0.80200
N38         N  0.19828144  0.73631173  0.68250454    -0.78100
C39         C  0.21729642  0.70636812  0.66688923     0.82700
N40         N  0.24743853  0.69141937  0.68588146    -0.78000
C41         C  0.25872574  0.70611128  0.71961583     0.82800
N42         N  0.23988944  0.73661684  0.73403506    -0.79700
O43         O  0.08255010  0.98552027  0.06024784    -0.88300
C44         C  0.06896049  0.06175998  0.14103411     0.87700
Mg45       Mg  0.11551788  0.00100147  0.01202901     1.58100
O46         O  0.98727465  0.05236883  0.08492489    -0.88100
O47         O  0.02267921  0.97008776  0.07070923    -0.75400
C48         C  0.06197518  0.18145126  0.97792034     0.92800
O49         O  0.13836729  0.05010715  0.08975633    -0.75200
O50         O  0.08938495  0.16185015  0.96347503    -0.82700
Mg51       Mg  0.10897135  0.99593381  0.11394603     1.58000
C52         C  0.92818778  0.14615621  0.04323415     0.92700
O53         O  0.07936291  0.93941110  0.14353042    -0.81000
H54         H  0.94834688  0.01836233  0.06137388    -0.06300
C55         C  0.05564599  0.13943676  0.06586613     0.87600
O56         O  0.06186477  0.01513746  0.97796136    -0.75500
O57         O  0.06125360  0.03128068  0.12499579    -0.87400
O58         O  0.93446405  0.13218047  0.07656956    -0.81000
C59         C  0.98148202  0.07096780  0.18799654     0.92800
C60         C  0.04707388  0.93495438  0.16065697     0.92600
Mg61       Mg  0.00389881  0.11012063  0.00499089     1.58000
O62         O  0.03290441  0.16506587  0.99130689    -0.81000
O63         O  0.97096817  0.05727422  0.02503356    -0.75200
O64         O  0.99519959  0.04092517  0.17377343    -0.81100
O65         O  0.16750627  0.96692669  0.10019294    -0.82800
O66         O  0.12991313  0.06869073  0.93713870    -0.81100
C67         C  0.96765380  0.04211307  0.05768380     0.87100
O68         O  0.05156001  0.07619296  0.98945236    -0.88200
O69         O  0.02673969  0.12028902  0.05922001    -0.88300
O70         O  0.08622425  0.13625161  0.04661811    -0.75400
Mg71       Mg  0.00613859  0.00761550  0.12119033     1.58000
O72         O  0.96591179  0.09659886  0.16708502    -0.82800
H73         H  0.05635510  0.94377122  0.03198140    -0.06500
O74         O  0.12095117  0.05803331  0.03045990    -0.88000
H75         H  0.15774812  0.09287451  0.05593379    -0.06300
H76         H  0.02033153  0.04630327  0.95282701    -0.06500
C77         C  0.13988983  0.06787690  0.05826981     0.87100
C78         C  0.05439445  0.96518917  0.05384062     0.87600
C79         C  0.04398100  0.04630028  0.97221615     0.87700
H80         H  0.05514223  0.15887327  0.08949064    -0.06500
O81         O  0.04875331  0.09175064  0.13730666    -0.75500
Mg82       Mg  0.10610194  0.10349274  0.99337396     1.58000
H83         H  0.09424478  0.06315103  0.15815662    -0.06500
C84         C  0.18686345  0.98011388  0.07219974     0.92700
O85         O  0.14912904  0.01235606  0.96028738    -0.82700
C86         C  0.14689872  0.03599875  0.93329304     0.92700
O87         O  0.02105547  0.95969644  0.15842417    -0.82700
Mg88       Mg  0.99290601  0.10916005  0.10749352     1.58200
O89         O  0.17065164  0.99170426  0.04243734    -0.81000
O90         O  0.95266607  0.14408303  0.01707968    -0.82700
C91         C  0.08099916  0.28557688  0.96534593     0.80200
N92         N  0.08274986  0.24699776  0.96067589    -0.78100
C93         C  0.06350882  0.22352438  0.98435156     0.82700
N94         N  0.04208069  0.23927411  0.01285488    -0.78000
C95         C  0.04146174  0.27784948  0.01895108     0.82800
N96         N  0.06016365  0.30078552  0.99407623    -0.79700
C97         C  0.96252492  0.09451097  0.28831822     0.80200
N98         N  0.99011496  0.07403375  0.30634933    -0.78100
C99         C  0.01736052  0.05520901  0.28612265     0.82700
N100        N  0.01419457  0.05475983  0.24761159    -0.78000
C101        C  0.98648188  0.07512355  0.22937419     0.82800
N102        N  0.96097609  0.09486547  0.25000256    -0.79700
C103        C  0.28976554  0.96050778  0.08424392     0.80200
N104        N  0.30520042  0.98846686  0.06200248    -0.78100
C105        C  0.28301341  0.01603718  0.04602101     0.82700
N106        N  0.24462953  0.01316912  0.05080524    -0.78000
C107        C  0.22867442  0.98531827  0.07300363     0.82800
N108        N  0.25144865  0.95904348  0.08944707    -0.79700
O109        O  0.85743395  0.48689386  0.37932706    -0.88300
C110        C  0.87045193  0.55820013  0.29285419     0.87700
Mg111      Mg  0.82352716  0.50406646  0.42623758     1.58100
O112        O  0.95188539  0.55456230  0.34987593    -0.88100
O113        O  0.91795320  0.47289186  0.37031301    -0.75400
C114        C  0.87224306  0.68522506  0.45378635     0.92800
O115        O  0.80095828  0.54872524  0.34486597    -0.75200
O116        O  0.84545772  0.66478373  0.46798551    -0.82700
Mg117      Mg  0.83132731  0.49364735  0.32490255     1.58000
C118        C  0.00780467  0.65242932  0.38763198     0.92700
O119        O  0.86199687  0.43566795  0.29973568    -0.81000
H120        H  0.99183367  0.52333117  0.37558464    -0.06300
C121        C  0.88099455  0.64118192  0.36459693     0.87600
O122        O  0.87657863  0.52053582  0.45987698    -0.75500
O123        O  0.87855354  0.52904332  0.31122057    -0.88200
O124        O  0.00269758  0.63637548  0.35498041    -0.81000
C125        C  0.95711384  0.56686524  0.24555782     0.92800
C126        C  0.89467367  0.43044143  0.28359298     0.92600
Mg127      Mg  0.93247360  0.61556958  0.42698033     1.58000
O128        O  0.90168254  0.67004270  0.43973505    -0.81000
O129        O  0.96730073  0.56305155  0.40952081    -0.75200
O130        O  0.94470499  0.53731617  0.26217767    -0.81100
O131        O  0.77300276  0.46516010  0.34080083    -0.82800
O132        O  0.80424169  0.57631925  0.49570510    -0.81100
C133        C  0.97158941  0.54646031  0.37778895     0.87100
O134        O  0.88556069  0.58091177  0.44444167    -0.88200
O135        O  0.91020379  0.62276089  0.37192295    -0.88300
O136        O  0.85064111  0.63823630  0.38423721    -0.75400
Mg137      Mg  0.93419082  0.50696416  0.31716028     1.58000
O138        O  0.97186641  0.59449322  0.26446164    -0.82800
H139        H  0.88491103  0.44821475  0.41074405    -0.06500
O140        O  0.81720146  0.55989838  0.40388433    -0.88000
H141        H  0.78025062  0.59279723  0.37587763    -0.06300
H142        H  0.91727970  0.55405864  0.48309410    -0.06500
C143        C  0.79858255  0.56801827  0.37526430     0.87100
C144        C  0.88626959  0.46808291  0.38732906     0.87600
C145        C  0.89374472  0.55234037  0.46365137     0.87700
H146        H  0.88104965  0.65989059  0.34021409    -0.06500
O147        O  0.88974474  0.58896704  0.29497709    -0.75500
Mg148      Mg  0.83040912  0.60711197  0.43869638     1.58000
H149        H  0.84566940  0.55774172  0.27490872    -0.06500
C150        C  0.75302640  0.47994039  0.36753426     0.92700
O151        O  0.78901070  0.51774035  0.47627590    -0.82700
C152        C  0.78754159  0.54378935  0.50083027     0.92700
O153        O  0.92033398  0.45569018  0.28426155    -0.82700
Mg154      Mg  0.94482936  0.60988466  0.32416796     1.58200
O155        O  0.76856795  0.49309362  0.39681542    -0.81000
O156        O  0.98272255  0.65086918  0.41330295    -0.82700
C157        C  0.65244949  0.47199416  0.33673039     0.80200
N158        N  0.63498011  0.49861340  0.35921627    -0.78100
C159        C  0.65568039  0.51986502  0.38402988     0.82700
N160        N  0.69374202  0.51261681  0.38707156    -0.78000
C161        C  0.71145415  0.48636606  0.36449294     0.82800
N162        N  0.69058812  0.46644770  0.33966164    -0.79700
C163        C  0.96905092  0.58256434  0.14178322     0.80200
N164        N  0.97424876  0.58549222  0.17981915    -0.78100
C165        C  0.94970643  0.56837418  0.20408410     0.82700
N166        N  0.91994475  0.54779017  0.18969548    -0.78000
C167        C  0.91338822  0.54593300  0.15169626     0.82800
N168        N  0.93907999  0.56247401  0.12799128    -0.79700
C169        C  0.85063471  0.78686167  0.47403822     0.80200
N170        N  0.84938415  0.74805926  0.47516005    -0.78100
C171        C  0.86977855  0.72726037  0.45023932     0.82700
N172        N  0.89157784  0.74568598  0.42378516    -0.78000
C173        C  0.89190457  0.78456129  0.42115040     0.82800
N174        N  0.87236804  0.80499051  0.44750627    -0.79700
O175        O  0.08342691  0.93415078  0.33614653    -0.88300
C176        C  0.07165648  0.94688238  0.45135178     0.87700
Mg177      Mg  0.03279708  0.92771514  0.30637832     1.58100
O178        O  0.10670832  0.85679817  0.42543411    -0.88100
O179        O  0.13360741  0.90158282  0.35411937    -0.75400
C180        C  0.92385230  0.80336233  0.40098057     0.92800
O181        O  0.01870662  0.97892304  0.38400308    -0.75200
O182        O  0.91930765  0.82636797  0.37311052    -0.82700
Mg183      Mg  0.08379759  0.98153037  0.37343361     1.58000
C184        C  0.05798175  0.76179464  0.45718415     0.92700
O185        O  0.15193020  0.97999893  0.35961685    -0.81000
H186        H  0.14054966  0.82360329  0.39387979    -0.06300
C187        C  0.99287506  0.87030328  0.44888539     0.87600
O188        O  0.04224600  0.86191220  0.30730659    -0.75500
O189        O  0.08766739  0.93993978  0.42074039    -0.88200
O190        O  0.08356209  0.78506577  0.46910279    -0.81000
C191        C  0.14381482  0.89839394  0.51387501     0.92800
C192        C  0.17553675  0.96690456  0.38392181     0.92600
Mg193      Mg  0.01926731  0.80491648  0.40391025     1.58000
O194        O  0.95653035  0.79677837  0.41429278    -0.81000
O195        O  0.08482652  0.80809619  0.39304928    -0.75200
O196        O  0.14775193  0.91403638  0.48185140    -0.81100
O197        O  0.06795445  0.02726466  0.32543996    -0.82800
O198        O  0.96253644  0.86501886  0.29284272    -0.81100
C199        C  0.11205989  0.82945262  0.40387826     0.87100
O200        O  0.01142541  0.83956227  0.35676898    -0.88200
O201        O  0.02207420  0.85325373  0.43848495    -0.88300
O202        O  0.96772515  0.88156556  0.42540083    -0.75400
Mg203      Mg  0.13788494  0.90773142  0.41957817     1.58000
O204        O  0.12326067  0.86814626  0.51780148    -0.82800
H205        H  0.11697828  0.90662713  0.29937254    -0.06500
O206        O  0.00213248  0.92473579  0.35737282    -0.88000
H207        H  0.96433522  0.95908553  0.38281792    -0.06300
H208        H  0.03982272  0.80556022  0.32109198    -0.06500
C209        C  0.99367440  0.95422623  0.37492499     0.87100
C210        C  0.11140501  0.91404778  0.32850820     0.87600
C211        C  0.03124101  0.83431041  0.32821487     0.87700
H212        H  0.98873725  0.87598961  0.47863917    -0.06500
O213        O  0.06352644  0.92046206  0.47512912    -0.75500
Mg214      Mg  0.96301525  0.87572127  0.36019409     1.58000
H215        H  0.06444758  0.97611035  0.45813031    -0.06500
C216        C  0.03816293  0.02326199  0.30481075     0.92700
O217        O  0.97692631  0.92398413  0.28065521    -0.82700
C218        C  0.97501856  0.89023162  0.26971331     0.92700
O219        O  0.16463056  0.96389870  0.41733061    -0.82700
Mg220      Mg  0.07237907  0.85446682  0.47499001     1.58200
O221        O  0.02359208  0.99070172  0.29970331    -0.81000
O222        O  0.02441137  0.77309751  0.45626257    -0.82700
C223        C  0.10261936  0.66912718  0.43088767     0.80200
N224        N  0.07491197  0.65278228  0.40910114    -0.78100
C225        C  0.04306456  0.67306606  0.39978689     0.82700
N226        N  0.03846009  0.70845917  0.41560937    -0.78000
C227        C  0.06576227  0.72474709  0.43786369     0.82800
N228        N  0.09772456  0.70494758  0.44489919    -0.79700
C229        C  0.26016834  0.93081337  0.33124372     0.80200
N230        N  0.22644266  0.94821101  0.33913768    -0.78100
C231        C  0.21145711  0.94667859  0.37419918     0.82700
N232        N  0.23024203  0.92656633  0.40148435    -0.78000
C233        C  0.26356736  0.90784928  0.39418659     0.82800
N234        N  0.27932813  0.91150000  0.35901467    -0.79700
C235        C  0.00864092  0.83891183  0.18420625     0.80200
N236        N  0.02976204  0.86656062  0.16635527    -0.78100
C237        C  0.03586627  0.90087773  0.18351155     0.82700
N238        N  0.01771228  0.90780069  0.21702214    -0.78000
C239        C  0.99590394  0.88071357  0.23451136     0.82800
N240        N  0.99201635  0.84630617  0.21815391    -0.79700
O241        O  0.55108770  0.36006006  0.94340053    -0.88300
C242        C  0.64076605  0.37033113  0.87650163     0.87700
Mg243      Mg  0.50476171  0.32476186  0.92780589     1.58100
O244        O  0.58141623  0.45072891  0.87555081    -0.88100
O245        O  0.55924150  0.42085207  0.95687829    -0.75400
C246        C  0.48117117  0.36611421  0.74517560     0.92800
O247        O  0.58765247  0.30169072  0.88580834    -0.75200
O248        O  0.46615755  0.33925602  0.76525032    -0.82700
Mg249      Mg  0.60619440  0.33388416  0.93992984     1.58000
C250        C  0.54599071  0.50281042  0.77808882     0.92700
O251        O  0.62866833  0.36687519  0.99683950    -0.81000
H252        H  0.55375021  0.49173802  0.90377062    -0.06300
C253        C  0.56908441  0.37567782  0.79231795     0.87600
O254        O  0.47004999  0.37672714  0.90858556    -0.75500
O255        O  0.62108221  0.37976158  0.90417280    -0.88200
O256        O  0.57766900  0.49849460  0.79601189    -0.81000
C257        C  0.68630475  0.45785480  0.86581609     0.92800
C258        C  0.64428878  0.39989484  0.00205362     0.92600
Mg259      Mg  0.50592881  0.42825217  0.81325948     1.58000
O260        O  0.49464305  0.39558121  0.76060900    -0.81000
O261        O  0.52155383  0.46531388  0.86424457    -0.75200
O262        O  0.66904343  0.44653498  0.89518235    -0.81100
O263        O  0.59041824  0.27677805  0.96999659    -0.82800
O264        O  0.43534454  0.29985983  0.85750132    -0.81100
C265        C  0.55273303  0.47050316  0.88169141     0.87100
O266        O  0.48643666  0.38270563  0.84870084    -0.88200
O267        O  0.56138605  0.40538881  0.80977743    -0.88300
O268        O  0.54880405  0.34556876  0.79500268    -0.75400
Mg269      Mg  0.61336686  0.43621405  0.92400269     1.58000
O270        O  0.66777961  0.47058926  0.83714328    -0.82800
H271        H  0.51808275  0.38776220  0.98049592    -0.06500
O272        O  0.52771742  0.31547486  0.87313702    -0.88000
H273        H  0.55827718  0.27874132  0.84220271    -0.06300
H274        H  0.44642976  0.41536121  0.87277654    -0.06500
C275        C  0.55755099  0.29773882  0.86622234     0.87100
C276        C  0.54219123  0.38907631  0.96147648     0.87600
C277        C  0.46641986  0.39215234  0.87612878     0.87700
H278        H  0.59413970  0.37514162  0.77463892    -0.06500
O279        O  0.63904290  0.38769867  0.84484734    -0.75500
Mg280      Mg  0.49323501  0.32615049  0.82527355     1.58000
H281        H  0.65932528  0.34584894  0.87903918    -0.06500
C282        C  0.56476422  0.25599532  0.95471334     0.92700
O283        O  0.45530803  0.28899644  0.91636582    -0.82700
C284        C  0.43058942  0.28518288  0.89099278     0.92700
O285        O  0.64533697  0.42498125  0.97628225    -0.82700
Mg286      Mg  0.60882894  0.44154622  0.82209295     1.58200
O287        O  0.53529951  0.27069519  0.94068340    -0.81000
O288        O  0.52162818  0.47639533  0.77615564    -0.82700
C289        C  0.46451588  0.34834613  0.64282733     0.80200
N290        N  0.46174538  0.34567655  0.68114411    -0.78100
C291        C  0.48650095  0.36445898  0.70344566     0.82700
N292        N  0.51422859  0.38645405  0.68688922    -0.78000
C293        C  0.51841587  0.38853178  0.64854696     0.82800
N294        N  0.49229053  0.37034754  0.62667203    -0.79700
C295        C  0.59450569  0.15540342  0.96850681     0.80200
N296        N  0.57375381  0.13739385  0.94130875    -0.78100
C297        C  0.55124559  0.15754674  0.91696782     0.82700
N298        N  0.54865094  0.19612371  0.92188118    -0.78000
C299        C  0.56930781  0.21446581  0.94898566     0.82800
N300        N  0.59182460  0.19392389  0.97194463    -0.79700
C301        C  0.79082649  0.47179075  0.85347686     0.80200
N302        N  0.75257438  0.47591293  0.84889064    -0.78100
C303        C  0.72817586  0.45142889  0.86606426     0.82700
N304        N  0.74253976  0.42271179  0.88824292    -0.78000
C305        C  0.78075384  0.41713208  0.89192654     0.82800
N306        N  0.80466894  0.44290330  0.87542225    -0.79700
O307        O  0.82743342  0.34958083  0.01366474    -0.88300
C308        C  0.94169430  0.36318747  0.99327818     0.87700
Mg309      Mg  0.79549032  0.39967427  0.01960447     1.58100
O310        O  0.92216108  0.33057603  0.08540560    -0.88100
O311        O  0.84864638  0.30068345  0.04660270    -0.75400
C312        C  0.89107196  0.51348933  0.13651456     0.92800
O313        O  0.87218891  0.41510325  0.96745562    -0.75200
O314        O  0.86060048  0.51716006  0.11695913    -0.82700
Mg315      Mg  0.86347430  0.34923590  0.96533889     1.58000
C316        C  0.95941067  0.38355656  0.17183421     0.92700
O317        O  0.85138941  0.28037390  0.96797143    -0.81000
H318        H  0.89538989  0.29564401  0.12168719    -0.06300
C319        C  0.93771446  0.44588471  0.06751310     0.87600
O320        O  0.79767502  0.39143981  0.08515336    -0.75500
O321        O  0.91217509  0.34670354  0.00356240    -0.88200
O322        O  0.97149821  0.35796117  0.14908246    -0.81000
C323        C  0.00965573  0.29508856  0.04080722     0.92800
C324        C  0.87645720  0.25691754  0.98041356     0.92600
Mg325      Mg  0.89855648  0.41805080  0.13512269     1.58000
O326        O  0.90617062  0.48111882  0.14134693    -0.81000
O327        O  0.89130074  0.35193105  0.13512466    -0.75200
O328        O  0.97684505  0.28866897  0.02785684    -0.81100
O329        O  0.81505969  0.36380391  0.92108275    -0.82800
O330        O  0.77827261  0.47067700  0.08076836    -0.81100
C331        C  0.90289619  0.32466349  0.11424448     0.87100
O332        O  0.84733211  0.42358280  0.10516271    -0.88200
O333        O  0.92967868  0.41577010  0.08434572    -0.88300
O334        O  0.91233318  0.47058321  0.05921477    -0.75400
Mg335      Mg  0.91420136  0.29742948  0.03722352     1.58000
O336        O  0.01447317  0.31819156  0.06851089    -0.82800
H337        H  0.79291547  0.31585117  0.04409438    -0.06500
O338        O  0.84505919  0.43229078  0.02106171    -0.88000
H339        H  0.86969353  0.47006327  0.98598142    -0.06300
H340        H  0.81326197  0.39438289  0.14038111    -0.06500
C341        C  0.86246971  0.44052840  0.99149949     0.87100
C342        C  0.82164249  0.32192448  0.03490900     0.87600
C343        C  0.81938266  0.40293482  0.11160608     0.87700
H344        H  0.96698600  0.45142148  0.05978157    -0.06500
O345        O  0.96669013  0.37399997  0.01690502    -0.75500
Mg346      Mg  0.84689369  0.47222338  0.06879105     1.58000
H347        H  0.94619924  0.36881289  0.96352879    -0.06500
C348        C  0.79520204  0.39443656  0.92453127     0.92700
O349        O  0.76706323  0.45447709  0.02270800    -0.82700
C350        C  0.75495734  0.45905740  0.05555382     0.92700
O351        O  0.90978286  0.26839374  0.98367509    -0.82700
Mg352      Mg  0.97024098  0.36758311  0.08178875     1.58200
O353        O  0.78919919  0.40895815  0.95671708    -0.81000
O354        O  0.95505120  0.41667858  0.15973631    -0.82700
C355        C  0.65533523  0.45510113  0.09008596     0.80200
N356        N  0.63936130  0.43143088  0.06386212    -0.78100
C357        C  0.66163811  0.41276091  0.03812923     0.82700
N358        N  0.69943730  0.42129736  0.03720863    -0.78000
C359        C  0.71563216  0.44549692  0.06273658     0.82800
N360        N  0.69339245  0.46206105  0.08913201    -0.79700
C361        C  0.93548651  0.33469952  0.26157713     0.80200
N362        N  0.91494981  0.36220599  0.28028558    -0.78100
C363        C  0.90605870  0.39564805  0.26213792     0.82700
N364        N  0.92099775  0.40183733  0.22700032    -0.78000
C365        C  0.94242637  0.37498304  0.20901378     0.82800
N366        N  0.94899002  0.34148898  0.22624072    -0.79700
C367        C  0.83844347  0.15881132  0.99117061     0.80200
N368        N  0.84056933  0.19658340  0.98233242    -0.78100
C369        C  0.86849540  0.21849698  0.99645250     0.82700
N370        N  0.89436611  0.20230849  0.02042245    -0.78000
C371        C  0.89218297  0.16483284  0.03105094     0.82800
N372        N  0.86490892  0.14277001  0.01456815    -0.79700
O373        O  0.45920532  0.04336238  0.86444388    -0.88300
C374        C  0.39147754  0.13119769  0.87755996     0.87700
Mg375      Mg  0.44093326  0.99649529  0.82832617     1.58100
O376        O  0.39301768  0.06867025  0.95548662    -0.88100
O377        O  0.47471133  0.04747615  0.92495374    -0.75400
C378        C  0.25766532  0.97747372  0.87306804     0.92800
O379        O  0.39880410  0.08123758  0.80795222    -0.75200
O380        O  0.27662295  0.96228335  0.84578185    -0.82700
Mg381      Mg  0.45385603  0.10062908  0.83784110     1.58000
C382        C  0.29695173  0.03253373  0.00988290     0.92700
O383        O  0.51121931  0.12593333  0.86885399    -0.81000
H384        H  0.42187905  0.03981545  0.99499219    -0.06300
C385        C  0.30705451  0.06158414  0.88469843     0.87600
O386        O  0.42220791  0.96154918  0.88013549    -0.75500
O387        O  0.42003730  0.11197639  0.88555973    -0.88200
O388        O  0.31646601  0.06366355  0.00635593    -0.81000
C389        C  0.38357048  0.17329978  0.96147969     0.92800
C390        C  0.51685950  0.13781082  0.90302850     0.92600
Mg391      Mg  0.32748804  0.99568490  0.93424488     1.58000
O392        O  0.27410434  0.98820619  0.90270619    -0.81000
O393        O  0.38002206  0.00886442  0.97030260    -0.75200
O394        O  0.41403626  0.15763019  0.95082850    -0.81100
O395        O  0.48030854  0.08494299  0.77903283    -0.82800
O396        O  0.36733077  0.92937978  0.80587114    -0.81100
C397        C  0.39897968  0.03955248  0.97473846     0.87100
O398        O  0.36203017  0.97766274  0.88804738    -0.88200
O399        O  0.32493189  0.05170426  0.91322458    -0.88300
O400        O  0.30906170  0.04321777  0.85374078    -0.75400
Mg401      Mg  0.44154167  0.10129250  0.94107461     1.58000
O402        O  0.35734529  0.15382213  0.97805005    -0.82800
H403        H  0.49846324  0.00897344  0.88905386    -0.06500
O404        O  0.38633130  0.02098340  0.82201742    -0.88000
H405        H  0.35465534  0.05148472  0.78613051    -0.06300
H406        H  0.38735705  0.93742467  0.91938609    -0.06500
C407        C  0.37914127  0.05087985  0.80445771     0.87100
C408        C  0.47905451  0.03270098  0.89243919     0.87600
C409        C  0.38998835  0.95766722  0.89638003     0.87700
H410        H  0.28974298  0.08706905  0.88592208    -0.06500
O411        O  0.36028816  0.12845886  0.89581959    -0.75500
Mg412      Mg  0.33756344  0.98747408  0.83280254     1.58000
H413        H  0.39282340  0.15031823  0.85354099    -0.06500
C414        C  0.46435859  0.05862623  0.75929316     0.92700
O415        O  0.42676730  0.94824521  0.79328679    -0.82700
C416        C  0.40055431  0.92395988  0.79074028     0.92700
O417        O  0.49281226  0.13284398  0.92904650    -0.82700
Mg418      Mg  0.33963797  0.09691718  0.94943284     1.58200
O419        O  0.45235896  0.02820569  0.77450441    -0.81000
O420        O  0.29071713  0.01096989  0.98213084    -0.82700
C421        C  0.44744774  0.10492637  0.66629034     0.80200
N422        N  0.46041303  0.09788109  0.70171092    -0.78100
C423        C  0.45248404  0.06473858  0.71939276     0.82700
N424        N  0.43001239  0.03857704  0.70141953    -0.78000
C425        C  0.41563959  0.04526701  0.66604309     0.82800
N426        N  0.42588165  0.07828132  0.64794064    -0.79700
C427        C  0.33571263  0.26360217  0.93345723     0.80200
N428        N  0.36280390  0.28104009  0.91136929    -0.78100
C429        C  0.39663921  0.26303136  0.90447877     0.82700
N430        N  0.40350307  0.22909365  0.92269234    -0.78000
C431        C  0.37700846  0.21227125  0.94582939     0.82800
N432        N  0.34314175  0.22951879  0.95035249    -0.79700
C433        C  0.15559786  0.97791561  0.84640727     0.80200
N434        N  0.19356813  0.97078538  0.84585926    -0.78100
C435        C  0.21665570  0.98741705  0.87116007     0.82700
N436        N  0.20142307  0.01230465  0.89695100    -0.78000
C437        C  0.16357645  0.02119600  0.89727801     0.82800
N438        N  0.14047768  0.00225225  0.87269776    -0.79700
O439        O  0.51110925  0.60488514  0.58007963    -0.88300
C440        C  0.49313401  0.49006171  0.56539330     0.87700
Mg441      Mg  0.51655181  0.63662708  0.52986981     1.58100
O442        O  0.58440885  0.51110700  0.59821961    -0.88100
O443        O  0.54397382  0.58364663  0.62853567    -0.75400
C444        C  0.63621436  0.54005066  0.41584913     0.92800
O445        O  0.46363420  0.56018244  0.51601805    -0.75200
O446        O  0.61367652  0.56870404  0.41170308    -0.82700
Mg447      Mg  0.46261521  0.56864465  0.58119894     1.58000
C448        C  0.67560162  0.47723607  0.54824010     0.92700
O449        O  0.46564624  0.58040612  0.64929663    -0.81000
H450        H  0.61882956  0.54094081  0.63198053    -0.06300
C451        C  0.56821296  0.49294182  0.48480231     0.87600
O452        O  0.58239278  0.63448156  0.53639603    -0.75500
O453        O  0.50191494  0.51972547  0.58245854    -0.88200
O454        O  0.65219277  0.46463844  0.57325425    -0.81000
C455        C  0.53999730  0.42126257  0.63190150     0.92800
C456        C  0.47820178  0.55501461  0.67226519     0.92600
Mg457      Mg  0.63528202  0.53510046  0.51104589     1.58000
O458        O  0.64273568  0.52638564  0.44833740    -0.81000
O459        O  0.63315242  0.54389356  0.57630760    -0.75200
O460        O  0.52589117  0.45393547  0.63812332    -0.81100
O461        O  0.41800411  0.61792605  0.56840292    -0.82800
O462        O  0.57706127  0.65196676  0.45754295    -0.81100
C463        C  0.61225978  0.53209193  0.60351292     0.87100
O464        O  0.60275609  0.58468322  0.50440747    -0.88200
O465        O  0.58573695  0.50196947  0.51381000    -0.88300
O466        O  0.55760765  0.51779962  0.46055642    -0.75400
Mg467      Mg  0.53529295  0.51752062  0.63110978     1.58000
O468        O  0.56967470  0.41752527  0.61087146    -0.82800
H469        H  0.54099387  0.63970388  0.61346027    -0.06500
O470        O  0.51773000  0.58629292  0.49788886    -0.88000
H471        H  0.48164231  0.56235353  0.46127932    -0.06300
H472        H  0.63811569  0.61969576  0.53177416    -0.06500
C473        C  0.48766279  0.56942073  0.49035604     0.87100
C474        C  0.53218708  0.61078691  0.60743250     0.87600
C475        C  0.60911630  0.61308256  0.52424653     0.87700
H476        H  0.56150425  0.46320751  0.48006588    -0.06500
O477        O  0.51803743  0.46553954  0.55511563    -0.75500
Mg478      Mg  0.56549142  0.58341689  0.45716793     1.58000
H479        H  0.46357278  0.48488667  0.55894464    -0.06500
C480        C  0.42123844  0.63873120  0.53855490     0.92700
O481        O  0.51896768  0.66417909  0.47462821    -0.82700
C482        C  0.55232311  0.67553471  0.47036137     0.92700
O483        O  0.48140608  0.52153464  0.66071215    -0.82700
Mg484      Mg  0.58365318  0.46262395  0.56230294     1.58200
O485        O  0.45331177  0.64408146  0.52307546    -0.81000
O486        O  0.66433013  0.48036183  0.51500169    -0.82700
C487        C  0.60188164  0.76572837  0.49579305     0.80200
N488        N  0.57443524  0.78402525  0.51671989    -0.78100
C489        C  0.54110273  0.76569043  0.52519526     0.82700
N490        N  0.53496477  0.73061635  0.50968299    -0.78000
C491        C  0.56164802  0.71274567  0.48796119     0.82800
N492        N  0.59511204  0.73030834  0.48156778    -0.79700
C493        C  0.48940859  0.59040550  0.77021371     0.80200
N494        N  0.51517391  0.56485657  0.78416432    -0.78100
C495        C  0.53254542  0.53914194  0.76093876     0.82700
N496        N  0.52102723  0.53773686  0.72417979    -0.78000
C497        C  0.49506316  0.56294017  0.70984603     0.82800
N498        N  0.47956272  0.58918156  0.73308375    -0.79700
C499        C  0.76543729  0.50496905  0.59624785     0.80200
N500        N  0.73019315  0.49020411  0.59017643    -0.78100
C501        C  0.71266877  0.49559064  0.55682074     0.82700
N502        N  0.73055534  0.51673417  0.52954321    -0.78000
C503        C  0.76542696  0.53281848  0.53519628     0.82800
N504        N  0.78354270  0.52538397  0.56841556    -0.79700
O505        O  0.45309548  0.88660538  0.57291352    -0.88300
C506        C  0.38020479  0.80132804  0.56350584     0.87700
Mg507      Mg  0.43851048  0.93477902  0.60675692     1.58100
O508        O  0.38467872  0.85744888  0.48081535    -0.88100
O509        O  0.46675361  0.87541556  0.51302612    -0.75400
C510        C  0.25818999  0.96505341  0.55923826     0.92800
O511        O  0.39120646  0.85431754  0.63023499    -0.75200
O512        O  0.27811746  0.98033048  0.58563569    -0.82700
Mg513      Mg  0.44534167  0.83202820  0.59984173     1.58000
C514        C  0.28729875  0.89704238  0.42743409     0.92700
O515        O  0.50231794  0.80514408  0.56881798    -0.81000
H516        H  0.41702125  0.88206881  0.44095514    -0.06300
C517        C  0.30055495  0.87689675  0.55273643     0.87600
O518        O  0.42293385  0.96991331  0.55422180    -0.75500
O519        O  0.40946324  0.81878052  0.55414521    -0.88200
O520        O  0.30133877  0.86337992  0.43348111    -0.81000
C521        C  0.36802601  0.75264818  0.47857913     0.92800
C522        C  0.50650434  0.78739015  0.53703742     0.92600
Mg523      Mg  0.32778751  0.93839293  0.49967415     1.58000
O524        O  0.27379119  0.95175251  0.52990432    -0.81000
O525        O  0.37951736  0.91845144  0.46557837    -0.75200
O526        O  0.39833827  0.76823019  0.48987079    -0.81100
O527        O  0.47432976  0.84712018  0.65689815    -0.82800
O528        O  0.36954943  0.00782162  0.62794529    -0.81100
C529        C  0.39410761  0.88541060  0.46114571     0.87100
O530        O  0.36236111  0.95620997  0.54613642    -0.88200
O531        O  0.31917888  0.88330625  0.52353859    -0.88300
O532        O  0.30405043  0.89694092  0.58248790    -0.75400
Mg533      Mg  0.43082391  0.82264201  0.49858483     1.58000
O534        O  0.34082776  0.77277471  0.46466934    -0.82800
H535        H  0.49230606  0.91652777  0.54427175    -0.06500
O536        O  0.38224175  0.91466760  0.61434081    -0.88000
H537        H  0.34854080  0.88718846  0.65114181    -0.06300
H538        H  0.38978465  0.99487726  0.51434054    -0.06500
C539        C  0.37314688  0.88580335  0.63277697     0.87100
C540        C  0.47190829  0.89344736  0.54384757     0.87600
C541        C  0.39121198  0.97489583  0.53764696     0.87700
H542        H  0.28117046  0.85294201  0.55321376    -0.06500
O543        O  0.34924524  0.80438387  0.54527069    -0.75500
Mg544      Mg  0.33627457  0.95111661  0.60143175     1.58000
H545        H  0.38074525  0.78355471  0.58854597    -0.06500
C546        C  0.45892068  0.87374123  0.67658264     0.92700
O547        O  0.42756914  0.98569879  0.64120555    -0.82700
C548        C  0.40257784  0.01143949  0.64380626     0.92700
O549        O  0.48056949  0.78716626  0.51244448    -0.82700
Mg550      Mg  0.32877330  0.83374499  0.49047139     1.58200
O551        O  0.44730323  0.90410174  0.66123404    -0.81000
O552        O  0.29247583  0.92419552  0.45030022    -0.82700
C553        C  0.34862236  0.64918001  0.46466492     0.80200
N554        N  0.37012135  0.63328279  0.49255318    -0.78100
C555        C  0.38848139  0.65566524  0.51799474     0.82700
N556        N  0.38714684  0.69436931  0.51301257    -0.78000
C557        C  0.36546451  0.71073103  0.48524029     0.82800
N558        N  0.34637327  0.68786305  0.46121825    -0.79700
C559        C  0.15824400  0.96451176  0.59458490     0.80200
N560        N  0.19565747  0.97344446  0.59000376    -0.78100
C561        C  0.21697805  0.95627969  0.56334166     0.82700
N562        N  0.20043129  0.92932801  0.54076421    -0.78000
C563        C  0.16324811  0.91872779  0.54548440     0.82800
N564        N  0.14205500  0.93732915  0.57205930    -0.79700
C565        C  0.46250026  0.84173820  0.77637949     0.80200
N566        N  0.46921895  0.84450235  0.73868132    -0.78100
C567        C  0.44956605  0.86921903  0.71718680     0.82700
N568        N  0.42238051  0.89174908  0.73377357    -0.78000
C569        C  0.41392118  0.88878742  0.77145084     0.82800
N570        N  0.43512887  0.86412264  0.79262797    -0.79700
C571        C  0.20692723  0.26035365  0.66363977     0.80200
N572        N  0.19429962  0.28051046  0.69384672    -0.78100
C573        C  0.16116215  0.27104639  0.71092407     0.82700
N574        N  0.14087222  0.24092782  0.69819699    -0.78000
C575        C  0.15308821  0.21992908  0.66840891     0.82800
N576        N  0.18667471  0.22966891  0.65139099    -0.79700
C577        C  0.14412934  0.04534153  0.66037869    -0.05400
C578        C  0.11362877  0.06410579  0.64242650     0.08700
C579        C  0.08992245  0.04348822  0.61781262    -0.02800
C580        C  0.10091514  0.00665658  0.60565314    -0.01100
C581        C  0.13530302  0.99047910  0.61900117    -0.04700
C582        C  0.15375062  0.00788959  0.64994018     0.02300
C583        C  0.11140695  0.10663568  0.64483258     0.09200
C584        C  0.05602626  0.06147732  0.60287773     0.35100
C585        C  0.18500137  0.98860780  0.66873977     0.38500
C586        C  0.12748115  0.12881774  0.61552954    -0.05100
C587        C  0.13774462  0.16713644  0.62209338     0.02100
C588        C  0.13318515  0.18327258  0.65855618    -0.04700
C589        C  0.11208211  0.16216712  0.68625164    -0.00900
C590        C  0.10089641  0.12418849  0.67894265    -0.03500
C591        C  0.13556838  0.11142392  0.57917368     0.35800
C592        C  0.10337047  0.17778241  0.72323840     0.39400
C593        C  0.15340712  0.18945041  0.59112130     0.38500
C594        C  0.08043308  0.10214638  0.70731422     0.35500
C595        C  0.16824165  0.06597575  0.68652684     0.36200
C596        C  0.07847127  0.98727354  0.57734244     0.39400
N597        N  0.16579937  0.20681265  0.56605269    -0.38700
N598        N  0.14183168  0.09745262  0.55020526    -0.40300
N599        N  0.09602426  0.18969553  0.75287266    -0.38000
N600        N  0.06398203  0.08461638  0.72985244    -0.40400
N601        N  0.02894167  0.07587371  0.59104538    -0.40200
N602        N  0.06033230  0.97188862  0.55483285    -0.37800
N603        N  0.20986849  0.97324429  0.68376707    -0.38800
N604        N  0.18749004  0.08255258  0.70722376    -0.40500
C605        C  0.36206446  0.34789409  0.61823599    -0.05400
C606        C  0.35638074  0.30828874  0.61360142     0.08700
C607        C  0.38795451  0.28429584  0.60675280    -0.02800
C608        C  0.42516431  0.29894200  0.61030169    -0.01100
C609        C  0.43052419  0.33720218  0.62114750    -0.04700
C610        C  0.39920665  0.36238718  0.62157958     0.02300
C611        C  0.31867775  0.29147094  0.62398092     0.09200
C612        C  0.38201030  0.24420111  0.59861732     0.35100
C613        C  0.40518870  0.40276221  0.62863782     0.38500
C614        C  0.28768306  0.29279542  0.59884298    -0.05100
C615        C  0.25103054  0.28171368  0.61131124     0.02100
C616        C  0.24554784  0.26844525  0.64869616    -0.04700
C617        C  0.27692302  0.26607902  0.67340574    -0.00900
C618        C  0.31315146  0.27805469  0.66127315    -0.03500
C619        C  0.29331668  0.30721638  0.56078573     0.35800
C620        C  0.27186856  0.25221247  0.71183053     0.39400
C621        C  0.21861166  0.28682734  0.58669255     0.38500
C622        C  0.34439961  0.27883383  0.68795723     0.35500
C623        C  0.32968934  0.37306792  0.62331622     0.36200
C624        C  0.45787682  0.27482791  0.60344859     0.39400
N625        N  0.19275755  0.29150880  0.56711838    -0.38700
N626        N  0.29788233  0.31889812  0.53046671    -0.40300
N627        N  0.26804148  0.24139523  0.74255406    -0.38000
N628        N  0.36925398  0.27988424  0.70923687    -0.40400
N629        N  0.37717681  0.21220275  0.59205982    -0.40200
N630        N  0.48400793  0.25579663  0.59705945    -0.37800
N631        N  0.41015798  0.43495284  0.63411069    -0.38800
N632        N  0.30380100  0.39305460  0.62746662    -0.40500
C633        C  0.07632834  0.31758525  0.86556543    -0.05400
C634        C  0.11544412  0.32310364  0.85839143     0.08700
C635        C  0.14072584  0.32822748  0.88888889    -0.02800
C636        C  0.12798907  0.32143783  0.92608026    -0.01100
C637        C  0.09044222  0.30931897  0.93234086    -0.04700
C638        C  0.06378071  0.31091923  0.90274066     0.02300
C639        C  0.13080900  0.31257354  0.82058799     0.09200
C640        C  0.18063660  0.33574265  0.88160233     0.35100
C641        C  0.02415696  0.30167419  0.91008205     0.38500
C642        C  0.12565851  0.33640181  0.78874551    -0.05100
C643        C  0.13572293  0.32303843  0.75247518     0.02100
C644        C  0.15224495  0.28660485  0.74842712    -0.04700
C645        C  0.15918928  0.26366733  0.78048689    -0.00900
C646        C  0.14724783  0.27599603  0.81624785    -0.03500
C647        C  0.10873023  0.37387784  0.79320783     0.35800
C648        C  0.17829521  0.22705518  0.77670206     0.39400
C649        C  0.12760682  0.34584742  0.71921936     0.38500
C650        C  0.14965874  0.24996044  0.84823061     0.35500
C651        C  0.04987489  0.31386218  0.83445490     0.36200
C652        C  0.15375252  0.32479043  0.95760430     0.39400
N653        N  0.12088102  0.36376726  0.69253369    -0.38700
N654        N  0.09502544  0.40372451  0.79672305    -0.40300
N655        N  0.19358104  0.19790676  0.77391518    -0.38000
N656        N  0.15109111  0.22909601  0.87361997    -0.40400
N657        N  0.21257677  0.34130855  0.87584691    -0.40200
N658        N  0.17425953  0.32803672  0.98281506    -0.37800
N659        N  0.99263456  0.29422005  0.91606096    -0.38800
N660        N  0.02882030  0.31077835  0.80962500    -0.40500
C661        C  0.17767144  0.70132235  0.56594042    -0.05400
C662        C  0.18619623  0.66335765  0.55552179     0.08700
C663        C  0.20450682  0.63923180  0.58169113    -0.02800
C664        C  0.21338553  0.65261678  0.61833852    -0.01100
C665        C  0.20625521  0.69130229  0.62855562    -0.04700
C666        C  0.18867846  0.71563617  0.60147266     0.02300
C667        C  0.17359568  0.64907349  0.51754533     0.09200
C668        C  0.21382511  0.60036257  0.57098328     0.35100
C669        C  0.18228911  0.75587282  0.60917836     0.38500
C670        C  0.18962574  0.66467940  0.48414660    -0.05100
C671        C  0.16940069  0.66261544  0.44987900     0.02100
C672        C  0.13274880  0.64640557  0.44941398    -0.04700
C673        C  0.12126751  0.62332825  0.48016040    -0.00900
C674        C  0.14099994  0.62561104  0.51474701    -0.03500
C675        C  0.22481160  0.68617256  0.48588038     0.35800
C676        C  0.08619244  0.60172679  0.47780198     0.39400
C677        C  0.18350039  0.68175966  0.41624367     0.38500
C678        C  0.12531263  0.60743341  0.54823151     0.35500
C679        C  0.15659767  0.72569740  0.54016588     0.36200
C680        C  0.22811320  0.62564413  0.64581927     0.39400
N681        N  0.19446306  0.69696680  0.38922576    -0.38700
N682        N  0.25286868  0.70337056  0.48716452    -0.40300
N683        N  0.05826079  0.58439161  0.47583305    -0.38000
N684        N  0.11277316  0.59295686  0.57497429    -0.40400
N685        N  0.22115345  0.56931015  0.56249084    -0.40200
N686        N  0.23958444  0.60392529  0.66771091    -0.37800
N687        N  0.17699775  0.78797331  0.61498777    -0.38800
N688        N  0.13971985  0.74507659  0.51969214    -0.40500
C689        C  0.19178420  0.85129219  0.75461735    -0.05400
C690        C  0.15239677  0.84980781  0.76290363     0.08700
C691        C  0.13172473  0.81628937  0.75488203    -0.02800
C692        C  0.15032470  0.78435925  0.73895558    -0.01100
C693        C  0.18982346  0.78556218  0.73152737    -0.04700
C694        C  0.21054907  0.81908453  0.73971455     0.02300
C695        C  0.13437517  0.88266455  0.78325450     0.09200
C696        C  0.09152832  0.81438554  0.76387034     0.35100
C697        C  0.25132788  0.82048353  0.73318056     0.38500
C698        C  0.13050228  0.91828011  0.76483570    -0.05100
C699        C  0.13031159  0.95215780  0.78635298     0.02100
C700        C  0.13193764  0.95002824  0.82605619    -0.04700
C701        C  0.12638722  0.91441497  0.84402573    -0.00900
C702        C  0.12900650  0.88054322  0.82277741    -0.03500
C703        C  0.12985600  0.91980881  0.72392745     0.35800
C704        C  0.12338044  0.91261735  0.88490733     0.39400
C705        C  0.13194922  0.98912524  0.76800952     0.38500
C706        C  0.13021491  0.84388557  0.84195068     0.35500
C707        C  0.21325805  0.88590791  0.76202387     0.36200
C708        C  0.12924581  0.74946078  0.73220285     0.39400
N709        N  0.13306920  0.01886827  0.75371784    -0.38700
N710        N  0.12891020  0.92045688  0.69124838    -0.40300
N711        N  0.12090415  0.91132194  0.91751370    -0.38000
N712        N  0.13117514  0.81461863  0.85723322    -0.40400
N713        N  0.05952141  0.81269867  0.77140351    -0.40200
N714        N  0.11266661  0.72144718  0.72691308    -0.37800
N715        N  0.28389783  0.82157815  0.72845353    -0.38800
N716        N  0.23022067  0.91364544  0.76757548    -0.40500
C717        C  0.42425341  0.66648607  0.80141743    -0.05400
C718        C  0.39058094  0.64492001  0.79837463     0.08700
C719        C  0.39211270  0.60503402  0.80338286    -0.02800
C720        C  0.42751901  0.58636752  0.80224705    -0.01100
C721        C  0.46087853  0.60781166  0.79551020    -0.04700
C722        C  0.45972533  0.64772801  0.79960798     0.02300
C723        C  0.35686592  0.66190093  0.77912364     0.09200
C724        C  0.35723219  0.58314315  0.80587564     0.35100
C725        C  0.49490541  0.66894604  0.80041735     0.38500
C726        C  0.35692692  0.66410670  0.73924832    -0.05100
C727        C  0.32480344  0.67773234  0.71980573     0.02100
C728        C  0.29222624  0.69000298  0.74012917    -0.04700
C729        C  0.29233546  0.68762316  0.78029787    -0.00900
C730        C  0.32448092  0.67336115  0.79957224    -0.03500
C731        C  0.39021754  0.65194875  0.71799063     0.35800
C732        C  0.25905923  0.69860650  0.80208637     0.39400
C733        C  0.32600743  0.67957947  0.67880534     0.38500
C734        C  0.32415558  0.66981146  0.84042200     0.35500
C735        C  0.42188184  0.70767331  0.80416136     0.36200
C736        C  0.42925875  0.54494425  0.80253763     0.39400
N737        N  0.32706771  0.68065541  0.64611539    -0.38700
N738        N  0.41668608  0.64243770  0.70090146    -0.40300
N739        N  0.23263809  0.70748411  0.81960355    -0.38000
N740        N  0.32390873  0.66670311  0.87299462    -0.40400
N741        N  0.32935261  0.56572836  0.80815149    -0.40200
N742        N  0.43087699  0.51191855  0.80259902    -0.37800
N743        N  0.52336324  0.68535385  0.80199342    -0.38800
N744        N  0.41929714  0.74049993  0.80702825    -0.40500
C745        C  0.58588757  0.22886578  0.65622684    -0.05400
C746        C  0.55859054  0.20740522  0.67644073     0.08700
C747        C  0.56355919  0.20106354  0.71559925    -0.02800
C748        C  0.59556037  0.21574863  0.73430868    -0.01100
C749        C  0.62448957  0.23488717  0.71365489    -0.04700
C750        C  0.61919495  0.24169497  0.67441684     0.02300
C751        C  0.52540739  0.18929460  0.65699762     0.09200
C752        C  0.53583157  0.17883088  0.73683275     0.35100
C753        C  0.64848768  0.26046248  0.65209330     0.38500
C754        C  0.53101327  0.15618338  0.63488055    -0.05100
C755        C  0.50056347  0.13063433  0.62928475     0.02100
C756        C  0.46515961  0.13771256  0.64676409    -0.04700
C757        C  0.45776131  0.17429944  0.66158241    -0.00900
C758        C  0.48802059  0.20002562  0.66719130    -0.03500
C759        C  0.56879981  0.14609313  0.62171984     0.35800
C760        C  0.42000406  0.18324456  0.67552123     0.39400
C761        C  0.50719853  0.09412556  0.61109858     0.38500
C762        C  0.48160562  0.23542620  0.68741089     0.35500
C763        C  0.57978210  0.23754425  0.61661298     0.36200
C764        C  0.59781100  0.21189435  0.77514541     0.39400
N765        N  0.51237290  0.06485075  0.59685856    -0.38700
N766        N  0.59890817  0.13803648  0.61107800    -0.40300
N767        N  0.38982243  0.19046585  0.68652820    -0.38000
N768        N  0.47672023  0.26348401  0.70391930    -0.40400
N769        N  0.51362225  0.16136801  0.75383206    -0.40200
N770        N  0.59940522  0.20884389  0.80768576    -0.37800
N771        N  0.67183839  0.27535878  0.63420231    -0.38800
N772        N  0.57503202  0.24456427  0.58500385    -0.40500
C773        C  0.73804556  0.14839831  0.83663380    -0.05400
C774        C  0.75426763  0.16557769  0.86855868     0.08700
C775        C  0.75403805  0.20576906  0.87199110    -0.02800
C776        C  0.73875764  0.22883503  0.84311455    -0.01100
C777        C  0.72281516  0.21186032  0.81050338    -0.04700
C778        C  0.72208202  0.17129281  0.80780747     0.02300
C779        C  0.77373971  0.14238261  0.89823945     0.09200
C780        C  0.76973568  0.22356044  0.90548898     0.35100
C781        C  0.70600395  0.15270835  0.77497700     0.38500
C782        C  0.81314368  0.13593452  0.89516320    -0.05100
C783        C  0.83477269  0.13079935  0.92815902     0.02100
C784        C  0.81724044  0.13539236  0.96385991    -0.04700
C785        C  0.77730506  0.13382849  0.96645290    -0.00900
C786        C  0.75542717  0.13603645  0.93318078    -0.03500
C787        C  0.83176511  0.13881928  0.85863085     0.35800
C788        C  0.75919958  0.13319066  0.00324434     0.39400
C789        C  0.87578884  0.12705184  0.92565314     0.38500
C790        C  0.71437519  0.13398862  0.93442405     0.35500
C791        C  0.73820790  0.10711257  0.83339134     0.36200
C792        C  0.73901160  0.27006269  0.84775731     0.39400
N793        N  0.90851433  0.12405773  0.92386054    -0.38700
N794        N  0.84659232  0.14126127  0.82945337    -0.40300
N795        N  0.74496216  0.13238997  0.03278209    -0.38000
N796        N  0.68158764  0.13146414  0.93424751    -0.40400
N797        N  0.78192531  0.23789809  0.93222869    -0.40200
N798        N  0.73958959  0.30288941  0.85161638    -0.37800
N799        N  0.69295959  0.13779238  0.74893775    -0.38800
N800        N  0.73841670  0.07416316  0.83080627    -0.40500
C801        C  0.80127695  0.42326850  0.64849130    -0.05400
C802        C  0.78193008  0.43004175  0.68298641     0.08700
C803        C  0.77201536  0.46800688  0.69266326    -0.02800
C804        C  0.77428993  0.49710734  0.66506427    -0.01100
C805        C  0.78642105  0.48816102  0.62817813    -0.04700
C806        C  0.80412041  0.45268088  0.62135309     0.02300
C807        C  0.76354294  0.39708020  0.70331012     0.09200
C808        C  0.75456140  0.47592100  0.72902455     0.35100
C809        C  0.81941351  0.44449293  0.58405199     0.38500
C810        C  0.78533637  0.36845012  0.72120421    -0.05100
C811        C  0.76791689  0.33424440  0.73376935     0.02100
C812        C  0.72792969  0.32920454  0.73065621    -0.04700
C813        C  0.70593014  0.35940013  0.71508843    -0.00900
C814        C  0.72373118  0.39234200  0.70046841    -0.03500
C815        C  0.82608228  0.37333485  0.72517884     0.35800
C816        C  0.66475140  0.35695503  0.71328024     0.39400
C817        C  0.79195765  0.30345489  0.74731495     0.38500
C818        C  0.70093084  0.42064185  0.68064573     0.35500
C819        C  0.81372961  0.38502446  0.63868950     0.36200
C820        C  0.75992943  0.53507315  0.67302289     0.39400
N821        N  0.81130451  0.27889004  0.75779333    -0.38700
N822        N  0.85865424  0.37674897  0.72818053    -0.40300
N823        N  0.63197276  0.35516722  0.71122935    -0.38000
N824        N  0.68279764  0.44319162  0.66491734    -0.40400
N825        N  0.74035171  0.48216761  0.75791718    -0.40200
N826        N  0.74860140  0.56542858  0.67942664    -0.37800
N827        N  0.83130082  0.43790918  0.55421699    -0.38800
N828        N  0.82377056  0.35455956  0.63084570    -0.40500
C829        C  0.66096166  0.09886295  0.13707612    -0.05400
C830        C  0.62842813  0.11188656  0.11816172     0.08700
C831        C  0.59879179  0.12914861  0.13892048    -0.02800
C832        C  0.60419670  0.13872707  0.17720973    -0.01100
C833        C  0.64004260  0.13251596  0.19449001    -0.04700
C834        C  0.66670680  0.10851872  0.17529345     0.02300
C835        C  0.62836686  0.11453503  0.07603547     0.09200
C836        C  0.56367228  0.13943897  0.12008473     0.35100
C837        C  0.70071710  0.09429320  0.19364052     0.38500
C838        C  0.60505134  0.09073307  0.05406106    -0.05100
C839        C  0.59690513  0.10082772  0.01620683     0.02100
C840        C  0.61330449  0.13432095  0.00017189    -0.04700
C841        C  0.64244132  0.15327858  0.02038359    -0.00900
C842        C  0.64879943  0.14441221  0.05855549    -0.03500
C843        C  0.58824485  0.05697198  0.07113297     0.35800
C844        C  0.66429674  0.18381100  0.00277947     0.39400
C845        C  0.56979844  0.07809506  0.99530823     0.38500
C846        C  0.67419307  0.16810051  0.08068779     0.35500
C847        C  0.68974323  0.07783914  0.11620172     0.36200
C848        C  0.57278649  0.15521300  0.19830329     0.39400
N849        N  0.54815142  0.05963666  0.97894134    -0.38700
N850        N  0.57518709  0.02988207  0.08482242    -0.40300
N851        N  0.68170458  0.20814201  0.98878109    -0.38000
N852        N  0.69434169  0.18700264  0.09837605    -0.40400
N853        N  0.53569265  0.14754518  0.10496973    -0.40200
N854        N  0.54757550  0.16828714  0.21497036    -0.37800
N855        N  0.72790195  0.08268614  0.20798218    -0.38800
N856        N  0.71270360  0.06122510  0.09944344    -0.40500
C857        C  0.85879410  0.09434173  0.30874198    -0.05400
C858        C  0.85267435  0.13378728  0.31397784     0.08700
C859        C  0.88374174  0.15815821  0.32105251    -0.02800
C860        C  0.92113153  0.14380966  0.31847136    -0.01100
C861        C  0.92724029  0.10553012  0.30801780    -0.04700
C862        C  0.89607291  0.08023105  0.30561666     0.02300
C863        C  0.81437779  0.14981892  0.30569440     0.09200
C864        C  0.87719557  0.19828518  0.32868208     0.35100
C865        C  0.90233871  0.04034969  0.29619186     0.38500
C866        C  0.78489243  0.14747937  0.33272282    -0.05100
C867        C  0.74716413  0.15582345  0.32220010     0.02100
C868        C  0.73906261  0.16680446  0.28470191    -0.04700
C869        C  0.76889517  0.17082282  0.25811078    -0.00900
C870        C  0.80646428  0.16233494  0.26859231    -0.03500
C871        C  0.79331828  0.13482650  0.37081510     0.35800
C872        C  0.76078052  0.18270022  0.21960384     0.39400
C873        C  0.71649583  0.15048841  0.34918982     0.38500
C874        C  0.83679669  0.16454342  0.24067044     0.35500
C875        C  0.82669692  0.06890996  0.30332341     0.36200
C876        C  0.95324707  0.16857688  0.32521285     0.39400
N877        N  0.69215962  0.14570280  0.37081218    -0.38700
N878        N  0.80018762  0.12462789  0.40116342    -0.40300
N879        N  0.75420418  0.19195543  0.18888838    -0.38000
N880        N  0.86100902  0.16613283  0.21844893    -0.40400
N881        N  0.87196278  0.23032667  0.33477471    -0.40200
N882        N  0.97868753  0.18847656  0.33134507    -0.37800
N883        N  0.90739248  0.00865028  0.28842493    -0.38800
N884        N  0.80099743  0.04877469  0.29903183    -0.40500
C885        C  0.58695397  0.38883385  0.31657997    -0.05400
C886        C  0.61088554  0.36851348  0.29162501     0.08700
C887        C  0.64150698  0.38759548  0.27391138    -0.02800
C888        C  0.64983024  0.42561534  0.28342612    -0.01100
C889        C  0.63092425  0.44315777  0.31430240    -0.04700
C890        C  0.59752257  0.42571763  0.32895108     0.02300
C891        C  0.60820668  0.32596245  0.28822973     0.09200
C892        C  0.66704868  0.36691626  0.24890169     0.35100
C893        C  0.57590659  0.44362533  0.35904969     0.38500
C894        C  0.59908328  0.30903723  0.25336567    -0.05100
C895        C  0.60895179  0.27056855  0.24629011     0.02100
C896        C  0.62607291  0.24815094  0.27512348    -0.04700
C897        C  0.62926929  0.26384727  0.31185780    -0.00900
C898        C  0.62156800  0.30282263  0.31805007    -0.03500
C899        C  0.58139523  0.33201859  0.22415087     0.35800
C900        C  0.64128338  0.24029181  0.34342803     0.39400
C901        C  0.60422652  0.25568915  0.20840747     0.38500
C902        C  0.62992069  0.31968785  0.35452368     0.35500
C903        C  0.55309523  0.37051853  0.33155056     0.36200
C904        C  0.68000397  0.44558811  0.26328437     0.39400
N905        N  0.60050746  0.24425657  0.17799261    -0.38700
N906        N  0.56702246  0.35028153  0.20094438    -0.40300
N907        N  0.65065287  0.22195120  0.36899899    -0.38000
N908        N  0.63661565  0.33317666  0.38355790    -0.40400
N909        N  0.68761983  0.35032887  0.22929239    -0.40200
N910        N  0.70395869  0.46147494  0.24710897    -0.37800
N911        N  0.55862927  0.45765420  0.38323082    -0.38800
N912        N  0.52601801  0.35587795  0.34336262    -0.40500
C913        C  0.21240234  0.26976076  0.06900657    -0.05400
C914        C  0.23247680  0.25030131  0.04034969     0.08700
C915        C  0.23781780  0.21033252  0.04353801    -0.02800
C916        C  0.22282658  0.18993194  0.07463095    -0.01100
C917        C  0.20335920  0.20943676  0.10405709    -0.04700
C918        C  0.19887070  0.24977481  0.10111839     0.02300
C919        C  0.25032125  0.27131146  0.00766212     0.09200
C920        C  0.25916839  0.18987123  0.01473871     0.35100
C921        C  0.18206395  0.27156631  0.13179978     0.38500
C922        C  0.28272591  0.29448518  0.01339624    -0.05100
C923        C  0.30733713  0.30254583  0.98280639     0.02100
C924        C  0.30194487  0.28382650  0.94807337    -0.04700
C925        C  0.26613589  0.26752228  0.94050882    -0.00900
C926        C  0.23985029  0.26193454  0.97028601    -0.03500
C927        C  0.29337889  0.30611712  0.05117506     0.35800
C928        C  0.25873083  0.25179007  0.90344795     0.39400
C929        C  0.34189168  0.32428503  0.98869408     0.38500
C930        C  0.20414849  0.24244248  0.96351856     0.35500
C931        C  0.20597021  0.31059248  0.06581518     0.36200
C932        C  0.22752161  0.14868770  0.07556262     0.39400
N933        N  0.36949669  0.34162132  0.99321422    -0.38700
N934        N  0.30199136  0.31542344  0.08129537    -0.40300
N935        N  0.25267699  0.23911023  0.87391925    -0.38000
N936        N  0.17559770  0.22685834  0.95860247    -0.40400
N937        N  0.27571898  0.17340923  0.99161111    -0.40200
N938        N  0.23175523  0.11588662  0.07609625    -0.37800
N939        N  0.16882583  0.28908980  0.15623743    -0.38800
N940        N  0.20092522  0.34321040  0.06379042    -0.40500
C941        C  0.20822252  0.03941120  0.22958487    -0.05400
C942        C  0.24720561  0.03313750  0.22194964     0.08700
C943        C  0.26737694  0.05984648  0.19971151    -0.02800
C944        C  0.24934493  0.09348461  0.18676326    -0.01100
C945        C  0.20994728  0.09989290  0.19395526    -0.04700
C946        C  0.18948484  0.07190907  0.21507501     0.02300
C947        C  0.26717381  0.00072600  0.24144475     0.09200
C948        C  0.30733896  0.05365162  0.19138021     0.35100
C949        C  0.14910616  0.07612930  0.22282088     0.38500
C950        C  0.25666000  0.96248624  0.23393724    -0.05100
C951        C  0.26270568  0.93405810  0.26165411     0.02100
C952        C  0.27926828  0.94398981  0.29638554    -0.04700
C953        C  0.29823126  0.97927763  0.29932721    -0.00900
C954        C  0.29081820  0.00836581  0.27274601    -0.03500
C955        C  0.23652651  0.95326828  0.19952246     0.35800
C956        C  0.32005476  0.98750528  0.33301417     0.39400
C957        C  0.24869838  0.89555258  0.25628987     0.38500
C958        C  0.30365776  0.04696227  0.28021018     0.35500
C959        C  0.18748278  0.01307134  0.25396147     0.36200
C960        C  0.27263543  0.12237422  0.16836165     0.39400
N961        N  0.23783495  0.86469571  0.25181363    -0.38700
N962        N  0.22042316  0.94570017  0.17211979    -0.40300
N963        N  0.33743511  0.99391550  0.35993895    -0.38000
N964        N  0.31388175  0.07776385  0.28621460    -0.40400
N965        N  0.33934170  0.04956509  0.18480735    -0.40200
N966        N  0.29154859  0.14531200  0.15398262    -0.37800
N967        N  0.11703555  0.07925595  0.22965644    -0.38800
N968        N  0.17092762  0.99214215  0.27335668    -0.40500
C969        C  0.04962791  0.23641031  0.20661105    -0.05400
C970        C  0.04501708  0.23080003  0.24594754     0.08700
C971        C  0.07183322  0.20857691  0.26573621    -0.02800
C972        C  0.10367791  0.19309556  0.24666105    -0.01100
C973        C  0.10807546  0.19802639  0.20697239    -0.04700
C974        C  0.08015542  0.21930141  0.18705380     0.02300
C975        C  0.01234140  0.24978108  0.26592028     0.09200
C976        C  0.06704873  0.20196870  0.30595269     0.35100
C977        C  0.08207309  0.22363034  0.14622339     0.38500
C978        C  0.97468113  0.23938799  0.25677502    -0.05100
C979        C  0.94469229  0.26531432  0.26335139     0.02100
C980        C  0.95217005  0.30096184  0.28027313    -0.04700
C981        C  0.98783413  0.30692524  0.29730925    -0.00900
C982        C  0.01856564  0.28256896  0.28829179    -0.03500
C983        C  0.96762471  0.20415035  0.23656301     0.35800
C984        C  0.99430467  0.34171578  0.31848348     0.39400
C985        C  0.90776001  0.25858711  0.24662412     0.38500
C986        C  0.05698252  0.29396051  0.29777007     0.35500
C987        C  0.02311731  0.26053917  0.18609995     0.36200
C988        C  0.13268922  0.17383249  0.26866766     0.39400
N989        N  0.87845491  0.25369619  0.23275036    -0.38700
N990        N  0.96213493  0.17616185  0.22018463    -0.40300
N991        N  0.99932809  0.36948832  0.33539782    -0.38000
N992        N  0.08765887  0.30329795  0.30496445    -0.40400
N993        N  0.06379530  0.19652113  0.33808129    -0.40200
N994        N  0.15583453  0.15865092  0.28636122    -0.37800
N995        N  0.08344493  0.22751259  0.11373987    -0.38800
N996        N  0.00196995  0.27962099  0.16967350    -0.40500
C997        C  0.62983589  0.51588340  0.17138761    -0.05400
C998        C  0.63559406  0.55119554  0.15288498     0.08700
C999        C  0.63081384  0.55338474  0.11341046    -0.02800
C1000       C  0.62787818  0.51952586  0.09222355    -0.01100
C1001       C  0.63227922  0.48383067  0.11036553    -0.04700
C1002       C  0.62930590  0.48187866  0.15002484     0.02300
C1003       C  0.65694164  0.58227972  0.17252512     0.09200
C1004       C  0.63320804  0.59002631  0.09434536     0.35100
C1005       C  0.62870633  0.44497902  0.16851990     0.38500
C1006       C  0.69661475  0.57811936  0.17718639    -0.05100
C1007       C  0.71827755  0.60779186  0.19303654     0.02100
C1008       C  0.70055881  0.64230621  0.20425806    -0.04700
C1009       C  0.66078738  0.64653846  0.19929749    -0.00900
C1010       C  0.63908627  0.61653916  0.18358229    -0.03500
C1011       C  0.71547779  0.54339853  0.16471155     0.35800
C1012       C  0.64238320  0.68241093  0.20853923     0.39400
C1013       C  0.75887114  0.60226362  0.19807981     0.38500
C1014       C  0.59853755  0.62109093  0.17799919     0.35500
C1015       C  0.62722901  0.51482030  0.21222851     0.36200
C1016       C  0.62577858  0.52128729  0.05131991     0.39400
N1017       N  0.79125363  0.59785929  0.20180873    -0.38700
N1018       N  0.73053625  0.51578077  0.15475057    -0.40300
N1019       N  0.62768857  0.71109828  0.21569103    -0.38000
N1020       N  0.56619881  0.62470668  0.17330613    -0.40400
N1021       N  0.63517072  0.61931610  0.07919505    -0.40200
N1022       N  0.62403318  0.52249729  0.01868669    -0.37800
N1023       N  0.62793987  0.41533535  0.18303549    -0.38800
N1024       N  0.62444800  0.51461007  0.24482948    -0.40500
C1025       C  0.86380879  0.72625323  0.15490839    -0.05400
C1026       C  0.89188100  0.74055145  0.17943890     0.08700
C1027       C  0.88431998  0.74189786  0.21871344    -0.02800
C1028       C  0.84912752  0.72933765  0.23323442    -0.01100
C1029       C  0.81951527  0.71820801  0.20842061    -0.04700
C1030       C  0.82732938  0.71669253  0.16898570     0.02300
C1031       C  0.92777500  0.75833976  0.16439472     0.09200
C1032       C  0.91234123  0.75757506  0.24445540     0.35100
C1033       C  0.79751690  0.70765075  0.14227293     0.38500
C1034       C  0.92594251  0.79363974  0.14487781    -0.05100
C1035       C  0.95852896  0.81688435  0.14216370     0.02100
C1036       C  0.99122142  0.80724355  0.16305800    -0.04700
C1037       C  0.99488292  0.76980792  0.17748383    -0.00900
C1038       C  0.96354553  0.74466155  0.17654285    -0.03500
C1039       C  0.88970080  0.80856962  0.13212821     0.35800
C1040       C  0.02901545  0.75908805  0.19769957     0.39400
C1041       C  0.95628802  0.85388397  0.12361437     0.38500
C1042       C  0.96674847  0.70644897  0.19222319     0.35500
C1043       C  0.87219340  0.72229746  0.11491674     0.36200
C1044       C  0.84408645  0.72780392  0.27401019     0.39400
N1045       N  0.95464727  0.88343157  0.10892991    -0.38700
N1046       N  0.86079231  0.82069027  0.12221362    -0.40300
N1047       N  0.05603338  0.75047429  0.21420267    -0.38000
N1048       N  0.96921824  0.67590807  0.20460561    -0.40400
N1049       N  0.93465162  0.76991592  0.26501676    -0.40200
N1050       N  0.84025199  0.72676507  0.30651202    -0.37800
N1051       N  0.77376483  0.70078555  0.12081750    -0.38800
N1052       N  0.87874266  0.71919412  0.08298756    -0.40500
C1053       C  0.69035181  0.72482759  0.37051651    -0.05400
C1054       C  0.69938281  0.76287176  0.38027723     0.08700
C1055       C  0.72171807  0.78508150  0.35538836    -0.02800
C1056       C  0.73316299  0.77016964  0.32001464    -0.01100
C1057       C  0.72309413  0.73230043  0.30956855    -0.04700
C1058       C  0.70305669  0.70927406  0.33601581     0.02300
C1059       C  0.68324709  0.77936628  0.41600038     0.09200
C1060       C  0.73268982  0.82347621  0.36607748     0.35100
C1061       C  0.69700688  0.66887067  0.32894209     0.38500
C1062       C  0.69513727  0.76515095  0.45142662    -0.05100
C1063       C  0.67083874  0.76848128  0.48310039     0.02100
C1064       C  0.63492800  0.78594990  0.47918497    -0.04700
C1065       C  0.62783048  0.80808731  0.44661314    -0.00900
C1066       C  0.65118884  0.80364173  0.41437093    -0.03500
C1067       C  0.73054968  0.74414903  0.45429384     0.35800
C1068       C  0.59378725  0.83134538  0.44475485     0.39400
C1069       C  0.68057083  0.75022722  0.51856314     0.38500
C1070       C  0.63995402  0.82058241  0.37868532     0.35500
C1071       C  0.66730375  0.70160460  0.39584914     0.36200
C1072       C  0.75485380  0.79437616  0.29445846     0.39400
N1073       N  0.68841480  0.73575671  0.54692634    -0.38700
N1074       N  0.75888765  0.72750647  0.45651156    -0.40300
N1075       N  0.56676923  0.85016595  0.44340413    -0.38000
N1076       N  0.63102222  0.83397250  0.35012811    -0.40400
N1077       N  0.74150589  0.85417555  0.37432695    -0.40200
N1078       N  0.77241397  0.81375166  0.27435418    -0.37800
N1079       N  0.69246464  0.63660172  0.32349914    -0.38800
N1080       N  0.64900431  0.68299267  0.41598751    -0.40500
C1081       C  0.27270869  0.79864417  0.12825483    -0.05400
C1082       C  0.31124104  0.80725668  0.12099393     0.08700
C1083       C  0.33913051  0.77859148  0.12483320    -0.02800
C1084       C  0.32841415  0.74118810  0.13574946    -0.01100
C1085       C  0.28969996  0.73245587  0.14246265    -0.04700
C1086       C  0.26201130  0.76161847  0.13938895     0.02300
C1087       C  0.32124034  0.84696340  0.10914348     0.09200
C1088       C  0.37863194  0.78765268  0.11722982     0.35100
C1089       C  0.22257342  0.75413202  0.14937639     0.38500
C1090       C  0.32721725  0.87512622  0.13688355    -0.05100
C1091       C  0.32180964  0.91401935  0.12780863     0.02100
C1092       C  0.31094016  0.92460795  0.09097827    -0.04700
C1093       C  0.31124061  0.89686710  0.06201532    -0.00900
C1094       C  0.31598618  0.85796951  0.07119006    -0.03500
C1095       C  0.33629013  0.86377547  0.17523535     0.35800
C1096       C  0.30341646  0.90799219  0.02327393     0.39400
C1097       C  0.32633653  0.94285023  0.15656498     0.38500
C1098       C  0.31193404  0.82896032  0.04230900     0.35500
C1099       C  0.24390021  0.82810876  0.12416453     0.36200
C1100       C  0.35709085  0.71170416  0.13966351     0.39400
N1101       N  0.33079460  0.96535827  0.17995195    -0.38700
N1102       N  0.34376370  0.85466966  0.20577900    -0.40300
N1103       N  0.29732807  0.91688275  0.99235631    -0.38000
N1104       N  0.30855886  0.80570706  0.01939602    -0.40400
N1105       N  0.41014082  0.79499969  0.11107647    -0.40200
N1106       N  0.38004238  0.68823478  0.14288771    -0.37800
N1107       N  0.19122947  0.74804803  0.15748889    -0.38800
N1108       N  0.22099076  0.85158223  0.12071003    -0.40500
C1109       C  0.05018434  0.63779812  0.10142767    -0.05400
C1110       C  0.07814140  0.60884698  0.10233654     0.08700
C1111       C  0.06696745  0.57019825  0.10349139    -0.02800
C1112       C  0.02880191  0.56094593  0.11132432    -0.01100
C1113       C  0.00206376  0.59047398  0.11721321    -0.04700
C1114       C  0.01185415  0.62837998  0.10835487     0.02300
C1115       C  0.11755122  0.61880552  0.11388905     0.09200
C1116       C  0.09539852  0.54027812  0.10094819     0.35100
C1117       C  0.98271723  0.65756583  0.10789749     0.38500
C1118       C  0.12422617  0.62650686  0.15241039    -0.05100
C1119       C  0.16096836  0.63551090  0.16477631     0.02100
C1120       C  0.19187291  0.63507433  0.13900512    -0.04700
C1121       C  0.18518024  0.62737290  0.10037327    -0.00900
C1122       C  0.14793260  0.61951730  0.08779365    -0.03500
C1123       C  0.09299284  0.62522257  0.17947257     0.35800
C1124       C  0.21659108  0.62720878  0.07368598     0.39400
C1125       C  0.16628164  0.64741202  0.20369946     0.38500
C1126       C  0.14068970  0.61248602  0.04814223     0.35500
C1127       C  0.06150160  0.67745381  0.09777921     0.36200
C1128       C  0.01788893  0.52136723  0.11721557     0.39400
N1129       N  0.17036008  0.65715210  0.23464205    -0.38700
N1130       N  0.06800711  0.62412603  0.20086003    -0.40300
N1131       N  0.24167635  0.62707827  0.05239404    -0.38000
N1132       N  0.13482809  0.60699820  0.01646846    -0.40400
N1133       N  0.11809709  0.51642820  0.09882959    -0.40200
N1134       N  0.00920076  0.48982345  0.12201038    -0.37800
N1135       N  0.95927227  0.68070837  0.10668735    -0.38800
N1136       N  0.07060236  0.70912607  0.09517114    -0.40500
C1137       C  0.30416515  0.59057057  0.28944519    -0.05400
C1138       C  0.30001795  0.61846170  0.31787749     0.08700
C1139       C  0.28566365  0.65495964  0.30864878    -0.02800
C1140       C  0.27633756  0.66387276  0.27108708    -0.01100
C1141       C  0.28217663  0.63664267  0.24224715    -0.04700
C1142       C  0.29490320  0.59955809  0.25163842     0.02300
C1143       C  0.31501166  0.61206021  0.35673128     0.09200
C1144       C  0.28228747  0.68404764  0.33765699     0.35100
C1145       C  0.29942260  0.57109060  0.22229198     0.38500
C1146       C  0.35367875  0.61987884  0.36359651    -0.05100
C1147       C  0.36589492  0.62712276  0.40063302     0.02100
C1148       C  0.33941106  0.62676027  0.43073773    -0.04700
C1149       C  0.30227219  0.61331749  0.42467176    -0.00900
C1150       C  0.28980602  0.60635422  0.38747158    -0.03500
C1151       C  0.37997840  0.62435614  0.33215653     0.35800
C1152       C  0.27701945  0.60742224  0.45657925     0.39400
C1153       C  0.40508107  0.63807396  0.40745366     0.38500
C1154       C  0.25052361  0.59622007  0.38052144     0.35500
C1155       C  0.31928437  0.55325597  0.29895531     0.36200
C1156       C  0.26003747  0.70096690  0.26226682     0.39400
N1157       N  0.43627116  0.64682881  0.41304142    -0.38700
N1158       N  0.40080003  0.62805886  0.30698276    -0.40300
N1159       N  0.25720755  0.60182986  0.48220082    -0.38000
N1160       N  0.21911386  0.58824485  0.37501355    -0.40400
N1161       N  0.27998568  0.70719284  0.36083630    -0.40200
N1162       N  0.24690145  0.73043600  0.25517135    -0.37800
N1163       N  0.30289188  0.54837282  0.19883541    -0.38800
N1164       N  0.33159160  0.52354956  0.30652291    -0.40500
C1165       C  0.78260019  0.77384825  0.62907484    -0.05400
C1166       C  0.79606259  0.81090845  0.62075250     0.08700
C1167       C  0.79820284  0.83862089  0.64945212    -0.02800
C1168       C  0.78879936  0.82865281  0.68700863    -0.01100
C1169       C  0.77658989  0.79116975  0.69549112    -0.04700
C1170       C  0.77230047  0.76417803  0.66623262     0.02300
C1171       C  0.81303964  0.81807174  0.58287719     0.09200
C1172       C  0.81144227  0.87679104  0.64039941     0.35100
C1173       C  0.75755151  0.72623380  0.67437669     0.38500
C1174       C  0.78961103  0.82698512  0.55184494    -0.05100
C1175       C  0.80317895  0.82098142  0.51476851     0.02100
C1176       C  0.84018036  0.80670040  0.50913645    -0.04700
C1177       C  0.86515993  0.80305233  0.54004664    -0.00900
C1178       C  0.85143583  0.80817351  0.57697166    -0.03500
C1179       C  0.75097399  0.83988805  0.55829004     0.35800
C1180       C  0.90415889  0.79074398  0.53395011     0.39400
C1181       C  0.77872949  0.82783765  0.48270322     0.38500
C1182       C  0.87562011  0.79938231  0.60898192     0.35500
C1183       C  0.78141150  0.74499071  0.59967955     0.36200
C1184       C  0.79389037  0.85614122  0.71710305     0.39400
N1185       N  0.75910726  0.83381160  0.45723443    -0.38700
N1186       N  0.72019693  0.85037936  0.56351351    -0.40300
N1187       N  0.93518171  0.78088493  0.52894502    -0.38000
N1188       N  0.89466047  0.79202284  0.63457188    -0.40400
N1189       N  0.82195049  0.90725411  0.63301245    -0.40200
N1190       N  0.79828819  0.87806168  0.74109906    -0.37800
N1191       N  0.74582206  0.69602910  0.68095746    -0.38800
N1192       N  0.78087188  0.72195267  0.57630147    -0.40500
C1193       C  0.84226665  0.64999415  0.80704201    -0.05400
C1194       C  0.81662517  0.61903651  0.80624575     0.08700
C1195       C  0.77829015  0.62530946  0.79623855    -0.02800
C1196       C  0.76525145  0.66249202  0.78879049    -0.01100
C1197       C  0.79046048  0.69377597  0.79124987    -0.04700
C1198       C  0.82922901  0.68737533  0.79930864     0.02300
C1199       C  0.82788676  0.58019059  0.81954072     0.09200
C1200       C  0.75201355  0.59339795  0.79392990     0.35100
C1201       C  0.85546919  0.71928994  0.80018118     0.38500
C1202       C  0.82596772  0.57206518  0.85855325    -0.05100
C1203       C  0.81872097  0.53443009  0.87074686     0.02100
C1204       C  0.81503519  0.50496990  0.84388810    -0.04700
C1205       C  0.82565501  0.51197490  0.80613777    -0.00900
C1206       C  0.83107044  0.54985383  0.79355670    -0.03500
C1207       C  0.82834028  0.60285973  0.88575110     0.35800
C1208       C  0.83092400  0.48026930  0.78064230     0.39400
C1209       C  0.81201655  0.52653460  0.91049350     0.38500
C1210       C  0.83694376  0.55794415  0.75376134     0.35500
C1211       C  0.88187007  0.64326521  0.81594503     0.36200
C1212       C  0.72602449  0.66832491  0.77742786     0.39400
N1213       N  0.80671615  0.52021561  0.94221058    -0.38700
N1214       N  0.83075167  0.62751291  0.90731863    -0.40300
N1215       N  0.83622016  0.45493120  0.76042296    -0.38000
N1216       N  0.84157757  0.56445382  0.72198210    -0.40400
N1217       N  0.73109475  0.56798727  0.79185572    -0.40200
N1218       N  0.69479769  0.67301477  0.76835081    -0.37800
N1219       N  0.87637700  0.74480340  0.80077866    -0.38800
N1220       N  0.91349422  0.63783050  0.82304225    -0.40500
C1221       C  0.63174540  0.82898016  0.79672116    -0.05400
C1222       C  0.61055963  0.80190013  0.81745859     0.08700
C1223       C  0.62918864  0.77123237  0.83513740    -0.02800
C1224       C  0.66833370  0.76502686  0.82861219    -0.01100
C1225       C  0.68909056  0.78962419  0.80370206    -0.04700
C1226       C  0.67099205  0.82362483  0.79089294     0.02300
C1227       C  0.56820265  0.80395974  0.81701431     0.09200
C1228       C  0.60744102  0.74514922  0.85877911     0.35100
C1229       C  0.69216911  0.85346966  0.77149406     0.38500
C1230       C  0.54805222  0.78123387  0.79115078    -0.05100
C1231       C  0.50971182  0.78932591  0.78340454     0.02100
C1232       C  0.49233899  0.82224565  0.79901230    -0.04700
C1233       C  0.51133512  0.84229587  0.82817047    -0.00900
C1234       C  0.54903344  0.83248518  0.83761149    -0.03500
C1235       C  0.56797781  0.75230161  0.76940571     0.35800
C1236       C  0.49448270  0.87588441  0.84529280     0.39400
C1237       C  0.48942597  0.76615231  0.75614622     0.38500
C1238       C  0.56952826  0.85411888  0.86587141     0.35500
C1239       C  0.61260902  0.86139447  0.77945789     0.36200
C1240       C  0.68616590  0.73276140  0.84727474     0.39400
N1241       N  0.47336961  0.74773773  0.73430185    -0.38700
N1242       N  0.58398111  0.72938661  0.75198699    -0.40300
N1243       N  0.48161413  0.90298073  0.85895943    -0.38000
N1244       N  0.58609459  0.87135973  0.88825707    -0.40400
N1245       N  0.58997827  0.72440197  0.87756379    -0.40200
N1246       N  0.70000262  0.70698594  0.86249963    -0.37800
N1247       N  0.70852612  0.87759811  0.75598365    -0.38800
N1248       N  0.59725153  0.88711069  0.76566717    -0.40500
loop_ 
_geom_bond_atom_site_label_1 
_geom_bond_atom_site_label_2 
_geom_bond_distance 
_geom_bond_site_symmetry_2 
_ccdc_geom_bond_type 
C1            N2   1.351       .  A
C1            N6   1.358       .  A
C1         C1197   1.477       .  S
N2            C3   1.354       .  A
C3            N4   1.355       .  A
C3         C1169   1.473       .  S
N4            C5   1.360       .  A
C5            N6   1.360       .  A
C5         C1225   1.508       .  S
C7            N8   1.359       .  A
C7           N12   1.355       .  A
C7         C1141   1.479       .  S
N8            C9   1.357       .  A
C9           N10   1.358       .  A
C9         C1085   1.482       .  S
N10          C11   1.355       .  A
C11          N12   1.358       .  A
C11        C1120   1.482       .  S
C13          N14   1.361       .  A
C13          N18   1.355       .  A
C13        C1057   1.499       .  S
N14          C15   1.359       .  A
C15          N16   1.360       .  A
C15        C1008   1.493       .  S
N16          C17   1.358       .  A
C17          N18   1.357       .  A
C17        C1029   1.501       .  S
C19          N20   1.355       .  A
C19          N24   1.358       .  A
C19         C917   1.502       .  S
N20          C21   1.356       .  A
C21          N22   1.359       .  A
C21         C973   1.500       .  S
N22          C23   1.360       .  A
C23          N24   1.359       .  A
C23         C945   1.508       .  S
C25          N26   1.352       .  A
C25          N30   1.353       .  A
C25         C868   1.475       .  S
N26          C27   1.355       .  A
C27          N28   1.364       .  A
C27         C833   1.510       .  S
N28          C29   1.363       .  A
C29          N30   1.359       .  A
C29         C896   1.497       .  S
C31          N32   1.357       .  A
C31          N36   1.355       .  A
C31         C749   1.495       .  S
N32          C33   1.356       .  A
C33          N34   1.361       .  A
C33         C777   1.497       .  S
N34          C35   1.360       .  A
C35          N36   1.358       .  A
C35         C812   1.502       .  S
C37          N38   1.357       .  A
C37          N42   1.355       .  A
C37         C693   1.483       .  S
N38          C39   1.360       .  A
C39          N40   1.362       .  A
C39         C665   1.510       .  S
N40          C41   1.362       .  A
C41          N42   1.356       .  A
C41         C728   1.496       .  S
O43         Mg45   2.127   1_565  S
O43         Mg51   2.152       .  S
O43          C78   1.242       .  S
C44          O57   1.241       .  S
C44          O81   1.274       .  A
C44          H83   1.080       .  S
Mg45         O74   2.111       .  S
Mg45         O89   2.246   1_545  S
Mg45         O85   2.209   1_554  S
Mg45         O56   2.297   1_554  S
O46         Mg88   2.154       .  S
O46         Mg71   2.130   1_655  S
O46          C67   1.242       .  S
O47          C78   1.274       .  A
O47         Mg71   2.293   1_565  S
C48          C93   1.492       .  S
C48          O50   1.288       .  A
C48          O62   1.262       .  A
O49          C77   1.275       .  A
O49         Mg51   2.319   1_545  S
O50         Mg82   2.372       .  S
Mg51         O57   2.120   1_565  S
Mg51         O65   2.345       .  S
Mg51         O53   2.464       .  S
C52         C371   1.490       .  S
C52          O90   1.263       .  A
C52          O58   1.295       .  A
O53          C60   1.294       .  A
H54          C67   1.081       .  S
C55          O69   1.242       .  S
C55          O70   1.275       .  A
C55          H80   1.080       .  S
O56          C79   1.275       .  A
O57         Mg71   2.114       .  S
O58         Mg88   2.468       .  S
C59         C101   1.483       .  S
C59          O72   1.285       .  A
C59          O64   1.262       .  A
C60         C237   1.491       .  S
C60          O87   1.262       .  A
Mg61         O68   2.125   1_554  S
Mg61         O69   2.115       .  S
Mg61         O62   2.228   1_554  S
Mg61         O63   2.291   1_455  S
Mg61         O90   2.200   1_455  S
O63          C67   1.274       .  A
O64         Mg71   2.231   1_655  S
O65          C84   1.284       .  A
O66          C86   1.298       .  A
O66         Mg82   2.479       .  S
O68         Mg82   2.149       .  S
O68          C79   1.243       .  S
O69         Mg88   2.112   1_455  S
O70         Mg82   2.314   1_554  S
Mg71         O87   2.194   1_545  S
O72         Mg88   2.348       .  S
H73          C78   1.081       .  S
O74         Mg82   2.126   1_554  S
O74          C77   1.241       .  S
H75          C77   1.080       .  S
H76          C79   1.081       .  S
O81         Mg88   2.315   1_455  S
C84         C107   1.482       .  S
C84          O89   1.266       .  A
O85          C86   1.264       .  A
C86         C437   1.494       .  S
C91          N92   1.362       .  A
C91          N96   1.360       .  A
C91         C637   1.468       .  S
N92          C93   1.351       .  A
C93          N94   1.373   1_556  A
N94          C95   1.368       .  A
C95          N96   1.357   1_554  A
C95         C323   1.486       .  S
C97          N98   1.366       .  A
C97         N102   1.357       .  A
C97         C861   1.472       .  S
N98          C99   1.364   1_655  A
C99         N100   1.368       .  A
C99         C216   1.491       .  S
N100        C101   1.370   1_455  A
C101        N102   1.346       .  A
C103        N104   1.365       .  A
C103        N108   1.360       .  A
C103       C1092   1.480       .  S
N104        C105   1.364   1_565  A
C105        N106   1.364       .  A
C105        C382   1.482       .  S
N106        C107   1.368   1_545  A
C107        N108   1.352       .  A
O109       Mg111   2.127       .  S
O109       Mg117   2.150       .  S
O109        C144   1.242       .  S
C110        O123   1.242       .  S
C110        O147   1.276       .  A
C110        H149   1.081       .  S
Mg111       O140   2.118       .  S
Mg111       O155   2.234       .  S
Mg111       O151   2.196       .  S
Mg111       O122   2.293       .  S
O112       Mg154   2.151       .  S
O112       Mg137   2.127       .  S
O112        C133   1.241       .  S
O113        C144   1.275       .  A
O113       Mg137   2.293       .  S
C114        C171   1.479       .  S
C114        O116   1.283       .  A
C114        O128   1.264       .  A
O115        C143   1.274       .  A
O115       Mg117   2.314       .  S
O116       Mg148   2.334       .  S
Mg117       O123   2.125       .  S
Mg117       O131   2.346       .  S
Mg117       O119   2.465       .  S
C118        C225   1.501       .  S
C118        O156   1.264   1_455  A
C118        O124   1.300       .  A
O119        C126   1.294       .  A
H120        C133   1.081       .  S
C121        O135   1.241       .  S
C121        O136   1.275       .  A
C121        H146   1.081       .  S
O122        C145   1.274       .  A
O123       Mg137   2.115       .  S
O124       Mg154   2.494   1_455  S
C125        C165   1.493       .  S
C125        O138   1.288       .  A
C125        O130   1.265       .  A
C126        C363   1.491       .  S
C126        O153   1.264       .  A
Mg127       O134   2.136       .  S
Mg127       O135   2.118       .  S
Mg127       O128   2.239       .  S
Mg127       O129   2.293       .  S
Mg127       O156   2.208       .  S
O129        C133   1.274       .  A
O130       Mg137   2.243       .  S
O131        C150   1.285       .  A
O132        C152   1.293       .  A
O132       Mg148   2.459       .  S
O134       Mg148   2.156       .  S
O134        C145   1.242       .  S
O135       Mg154   2.127       .  S
O136       Mg148   2.319       .  S
Mg137       O153   2.199       .  S
O138       Mg154   2.376       .  S
H139        C144   1.081       .  S
O140       Mg148   2.118       .  S
O140        C143   1.241       .  S
H141        C143   1.081       .  S
H142        C145   1.081       .  S
O147       Mg154   2.320       .  S
C150        C161   1.484       .  S
C150        O155   1.262       .  A
O151        C152   1.262       .  A
C152        C503   1.489       .  S
C157        N158   1.371       .  A
C157        N162   1.360       .  A
C157        C889   1.495       .  S
N158        C159   1.366       .  A
C159        N160   1.367       .  A
C159        C444   1.494       .  S
N160        C161   1.368       .  A
C161        N162   1.345       .  A
C163        N164   1.363       .  A
C163        N168   1.361       .  A
C163       C1113   1.473   1_655  S
N164        C165   1.353       .  A
C165        N166   1.372       .  A
N166        C167   1.367       .  A
C167        N168   1.358       .  A
C167        C312   1.484       .  S
C169        N170   1.359       .  A
C169        N174   1.363       .  A
C169       C1176   1.470       .  S
N170        C171   1.349       .  A
C171        N172   1.367       .  A
N172        C173   1.364       .  A
C173        N174   1.360       .  A
C173        C180   1.481       .  S
O175       Mg177   2.086       .  S
O175       Mg183   2.123       .  S
O175        C210   1.239       .  S
C176        O189   1.243       .  S
C176        O213   1.280       .  A
C176        H215   1.081       .  S
Mg177       O206   2.100       .  S
Mg177       O221   2.240       .  S
Mg177       O217   2.174   1_455  S
Mg177       O188   2.327       .  S
O178       Mg220   2.125       .  S
O178       Mg203   2.102       .  S
O178        C199   1.240       .  S
O179        C210   1.275       .  A
O179       Mg203   2.332       .  S
C180        O182   1.282       .  A
C180        O194   1.265       .  A
O181        C209   1.277   1_455  A
O181       Mg183   2.320       .  S
O182       Mg214   2.355       .  S
Mg183       O189   2.219       .  S
Mg183       O197   2.397   1_565  S
Mg183       O185   2.444       .  S
C184        C227   1.492       .  S
C184        O222   1.246       .  A
C184        O190   1.287       .  A
O185        C192   1.282       .  A
H186        C199   1.081       .  S
C187        O201   1.242   1_655  S
C187        O202   1.278       .  A
C187        H212   1.081       .  S
O188        C211   1.274       .  A
O189       Mg203   2.096       .  S
O190       Mg220   2.470       .  S
C191        C563   1.496       .  S
C191        O204   1.289       .  A
C191        O196   1.264       .  A
C192        C231   1.488       .  S
C192        O219   1.245       .  A
Mg193       O200   2.078       .  S
Mg193       O201   2.094       .  S
Mg193       O194   2.253   1_455  S
Mg193       O195   2.339       .  S
Mg193       O222   2.167       .  S
O195        C199   1.276       .  A
O196       Mg203   2.244       .  S
O197        C216   1.288       .  A
O198        C218   1.278       .  A
O198       Mg214   2.414       .  S
O200       Mg214   2.125   1_455  S
O200        C211   1.239       .  S
O201       Mg220   2.197       .  S
O202       Mg214   2.324       .  S
Mg203       O219   2.181       .  S
O204       Mg220   2.400       .  S
H205        C210   1.081       .  S
O206       Mg214   2.201   1_455  S
O206        C209   1.242   1_455  S
H207        C209   1.081       .  S
H208        C211   1.081       .  S
O213       Mg220   2.331       .  S
C216        O221   1.264   1_545  A
O217        C218   1.246       .  A
C218        C239   1.482       .  S
C223        N224   1.372       .  A
C223        N228   1.360       .  A
C223        C672   1.479       .  S
N224        C225   1.367       .  A
C225        N226   1.370       .  A
N226        C227   1.371       .  A
C227        N228   1.344       .  A
C229        N230   1.361       .  A
C229        N234   1.371       .  A
C229        C952   1.474       .  S
N230        C231   1.346       .  A
C231        N232   1.366       .  A
N232        C233   1.367       .  A
C233        N234   1.365       .  A
C233        C514   1.494       .  S
C235        N236   1.371       .  A
C235        N240   1.359   1_455  A
C235       C1036   1.475   1_455  S
N236        C237   1.365       .  A
C237        N238   1.366       .  A
N238        C239   1.364   1_455  A
C239        N240   1.345       .  A
O241       Mg243   2.122       .  S
O241       Mg249   2.147       .  S
O241        C276   1.241       .  S
C242        O255   1.242       .  S
C242        O279   1.274       .  A
C242        H281   1.081       .  S
Mg243       O272   2.118       .  S
Mg243       O287   2.223       .  S
Mg243       O283   2.184       .  S
Mg243       O254   2.294       .  S
O244       Mg286   2.144       .  S
O244       Mg269   2.115       .  S
O244        C265   1.242       .  S
O245        C276   1.273       .  A
O245       Mg269   2.289       .  S
C246        C291   1.489       .  S
C246        O248   1.288       .  A
C246        O260   1.262       .  A
O247        C275   1.276       .  A
O247       Mg249   2.322       .  S
O248       Mg280   2.375       .  S
Mg249       O255   2.106       .  S
Mg249       O263   2.327       .  S
Mg249       O251   2.459       .  S
C250        C495   1.485       .  S
C250        O288   1.263       .  A
C250        O256   1.294       .  A
O251        C258   1.294   1_556  A
H252        C265   1.081       .  S
C253        O267   1.241       .  S
C253        O268   1.276       .  A
C253        H278   1.078       .  S
O254        C277   1.274       .  A
O255       Mg269   2.116       .  S
O256       Mg286   2.454       .  S
C257        C303   1.490       .  S
C257        O270   1.287       .  A
C257        O262   1.263       .  A
C258        C357   1.489       .  S
C258        O285   1.264   1_554  A
Mg259       O266   2.136       .  S
Mg259       O267   2.111       .  S
Mg259       O260   2.227       .  S
Mg259       O261   2.295       .  S
Mg259       O288   2.201       .  S
O261        C265   1.275       .  A
O262       Mg269   2.232       .  S
O263        C282   1.282       .  A
O264        C284   1.300       .  A
O264       Mg280   2.503       .  S
O266       Mg280   2.161       .  S
O266        C277   1.242       .  S
O267       Mg286   2.142       .  S
O268       Mg280   2.325       .  S
Mg269       O285   2.204       .  S
O270       Mg286   2.373       .  S
H271        C276   1.081       .  S
O272       Mg280   2.120       .  S
O272        C275   1.243       .  S
H273        C275   1.081       .  S
H274        C277   1.081       .  S
O279       Mg286   2.308       .  S
C282        C299   1.477       .  S
C282        O287   1.260       .  A
O283        C284   1.260       .  A
C284        C429   1.499       .  S
C289        N290   1.362       .  A
C289        N294   1.366       .  A
C289        C609   1.477       .  S
N290        C291   1.351       .  A
C291        N292   1.371       .  A
N292        C293   1.366       .  A
C293        N294   1.364       .  A
C293        C455   1.492       .  S
C295        N296   1.367       .  A
C295        N300   1.357       .  A
C295        C840   1.496   1_556  S
N296        C297   1.367       .  A
C297        N298   1.365       .  A
C297        C390   1.481       .  S
N298        C299   1.368       .  A
C299        N300   1.344       .  A
C301        N302   1.364       .  A
C301        N306   1.364       .  A
C301       C1204   1.478       .  S
N302        C303   1.353       .  A
C303        N304   1.371       .  A
N304        C305   1.365       .  A
C305        N306   1.362       .  A
C305        C348   1.490       .  S
O307       Mg309   2.093       .  S
O307       Mg315   2.123   1_554  S
O307        C342   1.240       .  S
C308        O321   1.240   1_556  S
C308        O345   1.275   1_556  A
C308        H347   1.081       .  S
Mg309       O338   2.085       .  S
Mg309       O353   2.260   1_554  S
Mg309       O349   2.166       .  S
Mg309       O320   2.338       .  S
O310       Mg352   2.134       .  S
O310       Mg335   2.085       .  S
O310        C331   1.239       .  S
O311        C342   1.276       .  A
O311       Mg335   2.331       .  S
C312        O314   1.285       .  A
C312        O326   1.263       .  A
O313        C341   1.279       .  A
O313       Mg315   2.327       .  S
O314       Mg346   2.374       .  S
Mg315       O321   2.190   1_556  S
Mg315       O329   2.374       .  S
Mg315       O317   2.449       .  S
C316        C365   1.472       .  S
C316        O354   1.244       .  A
C316        O322   1.278       .  A
O317        C324   1.283       .  A
H318        C331   1.081       .  S
C319        O333   1.241       .  S
C319        O334   1.277       .  A
C319        H344   1.081       .  S
O320        C343   1.277       .  A
O321       Mg335   2.094       .  S
O322       Mg352   2.404       .  S
C323        O336   1.285       .  A
C323        O328   1.264   1_455  A
C324        C369   1.484       .  S
C324        O351   1.245       .  A
Mg325       O332   2.104       .  S
Mg325       O333   2.101       .  S
Mg325       O326   2.235       .  S
Mg325       O327   2.328       .  S
Mg325       O354   2.174       .  S
O327        C331   1.275       .  A
O328       Mg335   2.248       .  S
O329        C348   1.285       .  A
O330        C350   1.282       .  A
O330       Mg346   2.449       .  S
O332       Mg346   2.131       .  S
O332        C343   1.240       .  S
O333       Mg352   2.211       .  S
O334       Mg346   2.326       .  S
Mg335       O351   2.159   1_554  S
O336       Mg352   2.372   1_455  S
H337        C342   1.081       .  S
O338       Mg346   2.197       .  S
O338        C341   1.243   1_554  S
H339        C341   1.081       .  S
H340        C343   1.081       .  S
O345       Mg352   2.310       .  S
C348        O353   1.265       .  A
O349        C350   1.247       .  A
C350        C359   1.483       .  S
C355        N356   1.369       .  A
C355        N360   1.361       .  A
C355       C1001   1.477       .  S
N356        C357   1.366       .  A
C357        N358   1.363       .  A
N358        C359   1.367       .  A
C359        N360   1.348       .  A
C361        N362   1.373       .  A
C361        N366   1.355       .  A
C361        C980   1.475       .  S
N362        C363   1.370       .  A
C363        N364   1.364       .  A
N364        C365   1.362       .  A
C365        N366   1.340       .  A
C367        N368   1.359       .  A
C367        N372   1.368   1_556  A
C367        C784   1.475       .  S
N368        C369   1.346       .  A
C369        N370   1.369   1_556  A
N370        C371   1.365       .  A
C371        N372   1.366       .  A
O373       Mg375   2.182   1_545  S
O373       Mg381   2.220       .  S
O373        C408   1.270       .  A
C374        O387   1.242       .  S
C374        O411   1.274       .  A
C374        H413   1.081       .  S
Mg375       O404   2.116   1_565  S
Mg375       O419   2.236   1_565  S
Mg375       O415   2.158       .  S
Mg375       O386   2.294       .  S
O376       Mg418   2.133       .  S
O376       Mg401   2.113       .  S
O376        C397   1.242       .  S
O377        C408   1.271       .  A
O377       Mg401   2.288       .  S
C378        C435   1.486       .  S
C378        O380   1.287       .  A
C378        O392   1.259       .  A
O379        C407   1.275       .  A
O379       Mg381   2.314       .  S
O380       Mg412   2.360       .  S
Mg381       O387   2.099       .  S
Mg381       O395   2.342       .  S
Mg381       O383   2.468       .  S
C382        O420   1.261   1_554  A
C382        O388   1.293       .  A
O383        C390   1.296       .  A
H384        C397   1.081       .  S
C385        O399   1.240       .  S
C385        O400   1.274       .  A
C385        H410   1.081       .  S
O386        C409   1.275       .  A
O387       Mg401   2.140       .  S
O388       Mg418   2.458   1_554  S
C389        C431   1.489       .  S
C389        O402   1.285       .  A
C389        O394   1.260       .  A
C390        O417   1.259       .  A
Mg391       O398   2.129       .  S
Mg391       O399   2.097   1_565  S
Mg391       O392   2.205       .  S
Mg391       O393   2.299   1_565  S
Mg391       O420   2.194   1_565  S
O393        C397   1.275       .  A
O394       Mg401   2.223       .  S
O395        C414   1.288       .  A
O396        C416   1.297       .  A
O396       Mg412   2.478       .  S
O398       Mg412   2.166       .  S
O398        C409   1.243       .  S
O399       Mg418   2.106       .  S
O400       Mg412   2.316   1_545  S
Mg401       O417   2.155       .  S
O402       Mg418   2.324       .  S
H403        C408   1.082       .  S
O404       Mg412   2.111   1_545  S
O404        C407   1.242       .  S
H405        C407   1.081       .  S
H406        C409   1.081       .  S
O411       Mg418   2.306       .  S
C414        C423   1.489       .  S
C414        O419   1.263       .  A
O415        C416   1.258       .  A
C416        C569   1.485       .  S
C421        N422   1.358       .  A
C421        N426   1.370       .  A
C421        C756   1.474       .  S
N422        C423   1.345       .  A
C423        N424   1.370       .  A
N424        C425   1.372       .  A
C425        N426   1.367       .  A
C425        C548   1.497       .  S
C427        N428   1.371       .  A
C427        N432   1.358       .  A
C427        C924   1.475       .  S
N428        C429   1.368       .  A
C429        N430   1.371       .  A
N430        C431   1.369       .  A
C431        N432   1.344       .  A
C433        N434   1.359       .  A
C433        N438   1.369   1_565  A
C433        C700   1.475       .  S
N434        C435   1.346       .  A
C435        N436   1.371   1_565  A
N436        C437   1.367       .  A
C437        N438   1.367       .  A
O439       Mg441   2.100       .  S
O439       Mg447   2.126       .  S
O439        C474   1.240       .  S
C440        O453   1.243       .  S
C440        O477   1.279       .  A
C440        H479   1.081       .  S
Mg441       O470   2.097       .  S
Mg441       O485   2.254       .  S
Mg441       O481   2.178       .  S
Mg441       O452   2.330       .  S
O442       Mg484   2.124       .  S
O442       Mg467   2.091       .  S
O442        C463   1.240       .  S
O443        C474   1.277       .  A
O443       Mg467   2.336       .  S
C444        O446   1.287       .  A
C444        O458   1.266       .  A
O445        C473   1.278       .  A
O445       Mg447   2.326       .  S
O446       Mg478   2.388       .  S
Mg447       O453   2.201       .  S
Mg447       O461   2.376       .  S
Mg447       O449   2.449       .  S
C448        C501   1.487       .  S
C448        O486   1.247       .  A
C448        O454   1.283       .  A
O449        C456   1.282       .  A
H450        C463   1.081       .  S
C451        O465   1.242       .  S
C451        O466   1.277       .  A
C451        H476   1.081       .  S
O452        C475   1.276       .  A
O453       Mg467   2.090       .  S
O454       Mg484   2.445       .  S
C455        O468   1.286       .  A
C455        O460   1.266       .  A
C456        C497   1.486       .  S
C456        O483   1.247       .  A
Mg457       O464   2.092       .  S
Mg457       O465   2.095       .  S
Mg457       O458   2.255       .  S
Mg457       O459   2.331       .  S
Mg457       O486   2.176       .  S
O459        C463   1.276       .  A
O460       Mg467   2.263       .  S
O461        C480   1.285       .  A
O462        C482   1.281       .  A
O462       Mg478   2.434       .  S
O464       Mg478   2.130       .  S
O464        C475   1.240       .  S
O465       Mg484   2.197       .  S
O466       Mg478   2.316       .  S
Mg467       O483   2.166       .  S
O468       Mg484   2.379       .  S
H469        C474   1.081       .  S
O470       Mg478   2.210       .  S
O470        C473   1.242       .  S
H471        C473   1.081       .  S
H472        C475   1.081       .  S
O477       Mg484   2.325       .  S
C480        C555   1.488       .  S
C480        O485   1.265       .  A
O481        C482   1.247       .  A
C482        C491   1.483       .  S
C487        N488   1.373       .  A
C487        N492   1.361       .  A
C487       C1064   1.479       .  S
N488        C489   1.368       .  A
C489        N490   1.364       .  A
C489        C522   1.493       .  S
N490        C491   1.363       .  A
C491        N492   1.346       .  A
C493        N494   1.366       .  A
C493        N498   1.361       .  A
C493        C721   1.474       .  S
N494        C495   1.363       .  A
C495        N496   1.365       .  A
N496        C497   1.368       .  A
C497        N498   1.348       .  A
C499        N500   1.362       .  A
C499        N504   1.369       .  A
C499        C805   1.473       .  S
N500        C501   1.347       .  A
C501        N502   1.365       .  A
N502        C503   1.366       .  A
C503        N504   1.364       .  A
O505       Mg507   2.132       .  S
O505       Mg513   2.149       .  S
O505        C540   1.243       .  S
C506        O519   1.240       .  S
C506        O543   1.273       .  A
C506        H545   1.081       .  S
Mg507       O536   2.116       .  S
Mg507       O551   2.226       .  S
Mg507       O547   2.195       .  S
Mg507       O518   2.294       .  S
O508       Mg550   2.160       .  S
O508       Mg533   2.126       .  S
O508        C529   1.243       .  S
O509        C540   1.276       .  A
O509       Mg533   2.299       .  S
C510        C561   1.488       .  S
C510        O512   1.288       .  A
C510        O524   1.262       .  A
O511        C539   1.275       .  A
O511       Mg513   2.318       .  S
O512       Mg544   2.356       .  S
Mg513       O519   2.109       .  S
Mg513       O527   2.329       .  S
Mg513       O515   2.468       .  S
C514        O552   1.264       .  A
C514        O520   1.295       .  A
O515        C522   1.294       .  A
H516        C529   1.081       .  S
C517        O531   1.240       .  S
C517        O532   1.274       .  A
C517        H542   1.081       .  S
O518        C541   1.275       .  A
O519       Mg533   2.105       .  S
O520       Mg550   2.466       .  S
C521        C557   1.488       .  S
C521        O534   1.287       .  A
C521        O526   1.265       .  A
C522        O549   1.264       .  A
Mg523       O530   2.144       .  S
Mg523       O531   2.123       .  S
Mg523       O524   2.225       .  S
Mg523       O525   2.288       .  S
Mg523       O552   2.207       .  S
O525        C529   1.275       .  A
O526       Mg533   2.244       .  S
O527        C546   1.283       .  A
O528        C548   1.299       .  A
O528       Mg544   2.493   1_545  S
O530       Mg544   2.164       .  S
O530        C541   1.242       .  S
O531       Mg550   2.122       .  S
O532       Mg544   2.312       .  S
Mg533       O549   2.202       .  S
O534       Mg550   2.361       .  S
H535        C540   1.081       .  S
O536       Mg544   2.110       .  S
O536        C539   1.242       .  S
H537        C539   1.081       .  S
H538        C541   1.081       .  S
O543       Mg550   2.310       .  S
C546        C567   1.480       .  S
C546        O551   1.261       .  A
O547        C548   1.262   1_565  A
C553        N554   1.363       .  A
C553        N558   1.361       .  A
C553       C1148   1.474       .  S
N554        C555   1.361       .  A
C555        N556   1.366       .  A
N556        C557   1.371       .  A
C557        N558   1.351       .  A
C559        N560   1.361       .  A
C559        N564   1.369       .  A
C559        C581   1.490       .  S
N560        C561   1.345       .  A
C561        N562   1.370       .  A
N562        C563   1.369       .  A
C563        N564   1.364       .  A
C565        N566   1.357       .  A
C565        N570   1.367       .  A
C565       C1232   1.488       .  S
N566        C567   1.344       .  A
C567        N568   1.370       .  A
N568        C569   1.368       .  A
C569        N570   1.365       .  A
C571        N572   1.356       .  A
C571        N576   1.362       .  A
C571        C616   1.482       .  S
N572        C573   1.351       .  A
C573        N574   1.353       .  A
C573        C644   1.468       .  S
N574        C575   1.355       .  A
C575        N576   1.366       .  A
C575        C588   1.505       .  S
C577        C578   1.411       .  A
C577        C582   1.404       .  A
C577        C595   1.453       .  S
C578        C583   1.493       .  S
C578        C579   1.409       .  A
C579        C580   1.414       .  A
C579        C584   1.450       .  S
C580        C581   1.418   1_545  A
C580        C596   1.449   1_545  S
C581        C582   1.415   1_565  A
C582        C585   1.453   1_545  S
C583        C586   1.409       .  A
C583        C590   1.404       .  A
C584        N601   1.157       .  T
C585        N603   1.157       .  T
C586        C587   1.409       .  A
C586        C591   1.452       .  S
C587        C588   1.418       .  A
C587        C593   1.450       .  S
C588        C589   1.430       .  A
C589        C590   1.411       .  A
C589        C592   1.451       .  S
C590        C594   1.452       .  S
C591        N598   1.157       .  T
C592        N599   1.158       .  T
C593        N597   1.157       .  T
C594        N600   1.157       .  T
C595        N604   1.157       .  T
C596        N602   1.157       .  T
C605        C606   1.411       .  A
C605        C610   1.407       .  A
C605        C623   1.451       .  S
C606        C611   1.495       .  S
C606        C607   1.413       .  A
C607        C608   1.412       .  A
C607        C612   1.449       .  S
C608        C609   1.407       .  A
C608        C624   1.447       .  S
C609        C610   1.411       .  A
C610        C613   1.451       .  S
C611        C614   1.411       .  A
C611        C618   1.412       .  A
C612        N629   1.157       .  T
C613        N631   1.157       .  T
C614        C615   1.414       .  A
C614        C619   1.449       .  S
C615        C616   1.413       .  A
C615        C621   1.449       .  S
C616        C617   1.414       .  A
C617        C618   1.406       .  A
C617        C620   1.452       .  S
C618        C622   1.453       .  S
C619        N626   1.157       .  T
C620        N627   1.157       .  T
C621        N625   1.157       .  T
C622        N628   1.157       .  T
C623        N632   1.157       .  T
C624        N630   1.157       .  T
C633        C634   1.411       .  A
C633        C638   1.404       .  A
C633        C651   1.451       .  S
C634        C639   1.488       .  S
C634        C635   1.414       .  A
C635        C636   1.407       .  A
C635        C640   1.450       .  S
C636        C637   1.404       .  A
C636        C652   1.446       .  S
C637        C638   1.410       .  A
C638        C641   1.453       .  S
C639        C642   1.412       .  A
C639        C646   1.413       .  A
C640        N657   1.157       .  T
C641        N659   1.157   1_455  T
C642        C643   1.411       .  A
C642        C647   1.449       .  S
C643        C644   1.409       .  A
C643        C649   1.449       .  S
C644        C645   1.410       .  A
C645        C646   1.401       .  A
C645        C648   1.453       .  S
C646        C650   1.453       .  S
C647        N654   1.157       .  T
C648        N655   1.157       .  T
C649        N653   1.157       .  T
C650        N656   1.157       .  T
C651        N660   1.157       .  T
C652        N658   1.156       .  T
C661        C662   1.412       .  A
C661        C666   1.411       .  A
C661        C679   1.453       .  S
C662        C667   1.504       .  S
C662        C663   1.409       .  A
C663        C664   1.417       .  A
C663        C668   1.450       .  S
C664        C665   1.424       .  A
C664        C680   1.450       .  S
C665        C666   1.423       .  A
C666        C669   1.453       .  S
C667        C670   1.415       .  A
C667        C674   1.415       .  A
C668        N685   1.157       .  T
C669        N687   1.158       .  T
C670        C671   1.411       .  A
C670        C675   1.450       .  S
C671        C672   1.409       .  A
C671        C677   1.449       .  S
C672        C673   1.410       .  A
C673        C674   1.413       .  A
C673        C676   1.450       .  S
C674        C678   1.450       .  S
C675        N682   1.157       .  T
C676        N683   1.157       .  T
C677        N681   1.157       .  T
C678        N684   1.157       .  T
C679        N688   1.157       .  T
C680        N686   1.157       .  T
C689        C690   1.416       .  A
C689        C694   1.409       .  A
C689        C707   1.453       .  S
C690        C695   1.498       .  S
C690        C691   1.411       .  A
C691        C692   1.412       .  A
C691        C696   1.449       .  S
C692        C693   1.413       .  A
C692        C708   1.450       .  S
C693        C694   1.413       .  A
C694        C697   1.453       .  S
C695        C698   1.412       .  A
C695        C702   1.412       .  A
C696        N713   1.157       .  T
C697        N715   1.158       .  T
C698        C699   1.411       .  A
C698        C703   1.449       .  S
C699        C700   1.408       .  A
C699        C705   1.447       .  S
C700        C701   1.411       .  A
C701        C702   1.409       .  A
C701        C704   1.451       .  S
C702        C706   1.450       .  S
C703        N710   1.157       .  T
C704        N711   1.157       .  T
C705        N709   1.156   1_565  T
C706        N712   1.157       .  T
C707        N716   1.158       .  T
C708        N714   1.157       .  T
C717        C718   1.409       .  A
C717        C722   1.411       .  A
C717        C735   1.448       .  S
C718        C723   1.493       .  S
C718        C719   1.408       .  A
C719        C720   1.407       .  A
C719        C724   1.449       .  S
C720        C721   1.412       .  A
C720        C736   1.451       .  S
C721        C722   1.406       .  A
C722        C725   1.444       .  S
C723        C726   1.413       .  A
C723        C730   1.405       .  A
C724        N741   1.157       .  T
C725        N743   1.156       .  T
C726        C727   1.408       .  A
C726        C731   1.453       .  S
C727        C728   1.417       .  A
C727        C733   1.452       .  S
C728        C729   1.423       .  A
C729        C730   1.414       .  A
C729        C732   1.451       .  S
C730        C734   1.450       .  S
C731        N738   1.157       .  T
C732        N739   1.157       .  T
C733        N737   1.158       .  T
C734        N740   1.157       .  T
C735        N744   1.157       .  T
C736        N742   1.157       .  T
C745        C746   1.410       .  A
C745        C750   1.414       .  A
C745        C763   1.450       .  S
C746        C751   1.500       .  S
C746        C747   1.414       .  A
C747        C748   1.407       .  A
C747        C752   1.453       .  S
C748        C749   1.417       .  A
C748        C764   1.453       .  S
C749        C750   1.421       .  A
C750        C753   1.451       .  S
C751        C754   1.414       .  A
C751        C758   1.413       .  A
C752        N769   1.157       .  T
C753        N771   1.158       .  T
C754        C755   1.411       .  A
C754        C759   1.450       .  S
C755        C756   1.410       .  A
C755        C761   1.451       .  S
C756        C757   1.409       .  A
C757        C758   1.410       .  A
C757        C760   1.449       .  S
C758        C762   1.450       .  S
C759        N766   1.157       .  T
C760        N767   1.157       .  T
C761        N765   1.157       .  T
C762        N768   1.157       .  T
C763        N772   1.157       .  T
C764        N770   1.158       .  T
C773        C774   1.405       .  A
C773        C778   1.413       .  A
C773        C791   1.450       .  S
C774        C779   1.494       .  S
C774        C775   1.412       .  A
C775        C776   1.409       .  A
C775        C780   1.452       .  S
C776        C777   1.418       .  A
C776        C792   1.453       .  S
C777        C778   1.424       .  A
C778        C781   1.451       .  S
C779        C782   1.408       .  A
C779        C786   1.408       .  A
C780        N797   1.157       .  T
C781        N799   1.157       .  T
C782        C783   1.408       .  A
C782        C787   1.449       .  S
C783        C784   1.413       .  A
C783        C789   1.451       .  S
C784        C785   1.408       .  A
C785        C786   1.412       .  A
C785        C788   1.446   1_556  S
C786        C790   1.446       .  S
C787        N794   1.157       .  T
C788        N795   1.157       .  T
C789        N793   1.157       .  T
C790        N796   1.157       .  T
C791        N800   1.157       .  T
C792        N798   1.158       .  T
C801        C802   1.415       .  A
C801        C806   1.409       .  A
C801        C819   1.451       .  S
C802        C807   1.502       .  S
C802        C803   1.416       .  A
C803        C804   1.411       .  A
C803        C808   1.450       .  S
C804        C805   1.407       .  A
C804        C820   1.449       .  S
C805        C806   1.410       .  A
C806        C809   1.452       .  S
C807        C810   1.412       .  A
C807        C814   1.414       .  A
C808        N825   1.157       .  T
C809        N827   1.157       .  T
C810        C811   1.414       .  A
C810        C815   1.451       .  S
C811        C812   1.423       .  A
C811        C817   1.451       .  S
C812        C813   1.421       .  A
C813        C814   1.408       .  A
C813        C816   1.453       .  S
C814        C818   1.455       .  S
C815        N822   1.157       .  T
C816        N823   1.157       .  T
C817        N821   1.158       .  T
C818        N824   1.158       .  T
C819        N828   1.157       .  T
C820        N826   1.157       .  T
C829        C830   1.404       .  A
C829        C834   1.411       .  A
C829        C847   1.452       .  S
C830        C835   1.493       .  S
C830        C831   1.409       .  A
C831        C832   1.411       .  A
C831        C836   1.451       .  S
C832        C833   1.421       .  A
C832        C848   1.451       .  S
C833        C834   1.429       .  A
C834        C837   1.451       .  S
C835        C838   1.408       .  A
C835        C842   1.409       .  A
C836        N853   1.157       .  T
C837        N855   1.158       .  T
C838        C839   1.415       .  A
C838        C843   1.450       .  S
C839        C840   1.422       .  A
C839        C845   1.449   1_554  S
C840        C841   1.419       .  A
C841        C842   1.404       .  A
C841        C844   1.453       .  S
C842        C846   1.453       .  S
C843        N850   1.157       .  T
C844        N851   1.157   1_554  T
C845        N849   1.158       .  T
C846        N852   1.157       .  T
C847        N856   1.157       .  T
C848        N854   1.158       .  T
C857        C858   1.410       .  A
C857        C862   1.405       .  A
C857        C875   1.452       .  S
C858        C863   1.489       .  S
C858        C859   1.410       .  A
C859        C860   1.410       .  A
C859        C864   1.449       .  S
C860        C861   1.407       .  A
C860        C876   1.445       .  S
C861        C862   1.413       .  A
C862        C865   1.453       .  S
C863        C866   1.409       .  A
C863        C870   1.412       .  A
C864        N881   1.157       .  T
C865        N883   1.157       .  T
C866        C867   1.410       .  A
C866        C871   1.449       .  S
C867        C868   1.411       .  A
C867        C873   1.449       .  S
C868        C869   1.413       .  A
C869        C870   1.406       .  A
C869        C872   1.453       .  S
C870        C874   1.452       .  S
C871        N878   1.157       .  T
C872        N879   1.157       .  T
C873        N877   1.157       .  T
C874        N880   1.157       .  T
C875        N884   1.157       .  T
C876        N882   1.156       .  T
C885        C886   1.411       .  A
C885        C890   1.415       .  A
C885        C903   1.450       .  S
C886        C891   1.498       .  S
C886        C887   1.411       .  A
C887        C888   1.405       .  A
C887        C892   1.453       .  S
C888        C889   1.418       .  A
C888        C904   1.453       .  S
C889        C890   1.419       .  A
C890        C893   1.450       .  S
C891        C894   1.409       .  A
C891        C898   1.410       .  A
C892        N909   1.157       .  T
C893        N911   1.158       .  T
C894        C895   1.413       .  A
C894        C899   1.450       .  S
C895        C896   1.421       .  A
C895        C901   1.450       .  S
C896        C897   1.418       .  A
C897        C898   1.408       .  A
C897        C900   1.451       .  S
C898        C902   1.452       .  S
C899        N906   1.157       .  T
C900        N907   1.157       .  T
C901        N905   1.157       .  T
C902        N908   1.157       .  T
C903        N912   1.157       .  T
C904        N910   1.158       .  T
C913        C914   1.410       .  A
C913        C918   1.413       .  A
C913        C931   1.451       .  S
C914        C919   1.503       .  S
C914        C915   1.416       .  A
C915        C916   1.410       .  A
C915        C920   1.453       .  S
C916        C917   1.420       .  A
C916        C932   1.453       .  S
C917        C918   1.424       .  A
C918        C921   1.452       .  S
C919        C922   1.415       .  A
C919        C926   1.414   1_554  A
C920        N937   1.157   1_554  T
C921        N939   1.158       .  T
C922        C923   1.410   1_554  A
C922        C927   1.450       .  S
C923        C924   1.408       .  A
C923        C929   1.450       .  S
C924        C925   1.410       .  A
C925        C926   1.411       .  A
C925        C928   1.449       .  S
C926        C930   1.451       .  S
C927        N934   1.157       .  T
C928        N935   1.157       .  T
C929        N933   1.157       .  T
C930        N936   1.157       .  T
C931        N940   1.157       .  T
C932        N938   1.158       .  T
C941        C942   1.413       .  A
C941        C946   1.411       .  A
C941        C959   1.454       .  S
C942        C947   1.502       .  S
C942        C943   1.409       .  A
C943        C944   1.413       .  A
C943        C948   1.451       .  S
C944        C945   1.426       .  A
C944        C960   1.452       .  S
C945        C946   1.423       .  A
C946        C949   1.453       .  S
C947        C950   1.415   1_545  A
C947        C954   1.415       .  A
C948        N965   1.157       .  T
C949        N967   1.158       .  T
C950        C951   1.412       .  A
C950        C955   1.449       .  S
C951        C952   1.407       .  A
C951        C957   1.448       .  S
C952        C953   1.408       .  A
C953        C954   1.409   1_565  A
C953        C956   1.451       .  S
C954        C958   1.450       .  S
C955        N962   1.157       .  T
C956        N963   1.157       .  T
C957        N961   1.157       .  T
C958        N964   1.157       .  T
C959        N968   1.157   1_545  T
C960        N966   1.158       .  T
C969        C970   1.414       .  A
C969        C974   1.409       .  A
C969        C987   1.453       .  S
C970        C975   1.502       .  S
C970        C971   1.410       .  A
C971        C972   1.414       .  A
C971        C976   1.450       .  S
C972        C973   1.422       .  A
C972        C988   1.451       .  S
C973        C974   1.421       .  A
C974        C977   1.453       .  S
C975        C978   1.413   1_455  A
C975        C982   1.414       .  A
C976        N993   1.157       .  T
C977        N995   1.158       .  T
C978        C979   1.410       .  A
C978        C983   1.450       .  S
C979        C980   1.411       .  A
C979        C985   1.450       .  S
C980        C981   1.410       .  A
C981        C982   1.412   1_655  A
C981        C984   1.451       .  S
C982        C986   1.450       .  S
C983        N990   1.157       .  T
C984        N991   1.157       .  T
C985        N989   1.157       .  T
C986        N992   1.157       .  T
C987        N996   1.157       .  T
C988        N994   1.158       .  T
C997        C998   1.411       .  A
C997       C1002   1.412       .  A
C997       C1015   1.448       .  S
C998       C1003   1.497       .  S
C998        C999   1.410       .  A
C999       C1000   1.409       .  A
C999       C1004   1.449       .  S
C1000      C1001   1.412       .  A
C1000      C1016   1.451       .  S
C1001      C1002   1.408       .  A
C1002      C1005   1.446       .  S
C1003      C1006   1.413       .  A
C1003      C1010   1.409       .  A
C1004      N1021   1.157       .  T
C1005      N1023   1.156       .  T
C1006      C1007   1.408       .  A
C1006      C1011   1.453       .  S
C1007      C1008   1.416       .  A
C1007      C1013   1.453       .  S
C1008      C1009   1.418       .  A
C1009      C1010   1.415       .  A
C1009      C1012   1.450       .  S
C1010      C1014   1.450       .  S
C1011      N1018   1.157       .  T
C1012      N1019   1.157       .  T
C1013      N1017   1.158       .  T
C1014      N1020   1.157       .  T
C1015      N1024   1.157       .  T
C1016      N1022   1.157       .  T
C1025      C1026   1.411       .  A
C1025      C1030   1.414       .  A
C1025      C1043   1.451       .  S
C1026      C1031   1.502       .  S
C1026      C1027   1.414       .  A
C1027      C1028   1.408       .  A
C1027      C1032   1.454       .  S
C1028      C1029   1.421       .  A
C1028      C1044   1.454       .  S
C1029      C1030   1.422       .  A
C1030      C1033   1.451       .  S
C1031      C1034   1.415       .  A
C1031      C1038   1.415       .  A
C1032      N1049   1.158       .  T
C1033      N1051   1.158       .  T
C1034      C1035   1.408       .  A
C1034      C1039   1.451       .  S
C1035      C1036   1.411       .  A
C1035      C1041   1.452       .  S
C1036      C1037   1.411       .  A
C1037      C1038   1.411       .  A
C1037      C1040   1.449   1_655  S
C1038      C1042   1.451       .  S
C1039      N1046   1.157       .  T
C1040      N1047   1.157       .  T
C1041      N1045   1.157       .  T
C1042      N1048   1.157       .  T
C1043      N1052   1.157       .  T
C1044      N1050   1.158       .  T
C1053      C1054   1.413       .  A
C1053      C1058   1.409       .  A
C1053      C1071   1.452       .  S
C1054      C1059   1.500       .  S
C1054      C1055   1.409       .  A
C1055      C1056   1.414       .  A
C1055      C1060   1.450       .  S
C1056      C1057   1.423       .  A
C1056      C1072   1.451       .  S
C1057      C1058   1.418       .  A
C1058      C1061   1.453       .  S
C1059      C1062   1.412       .  A
C1059      C1066   1.413       .  A
C1060      N1077   1.157       .  T
C1061      N1079   1.158       .  T
C1062      C1063   1.411       .  A
C1062      C1067   1.450       .  S
C1063      C1064   1.410       .  A
C1063      C1069   1.449       .  S
C1064      C1065   1.410       .  A
C1065      C1066   1.412       .  A
C1065      C1068   1.449       .  S
C1066      C1070   1.450       .  S
C1067      N1074   1.157       .  T
C1068      N1075   1.157       .  T
C1069      N1073   1.157       .  T
C1070      N1076   1.157       .  T
C1071      N1080   1.157       .  T
C1072      N1078   1.158       .  T
C1081      C1082   1.411       .  A
C1081      C1086   1.404       .  A
C1081      C1099   1.453       .  S
C1082      C1087   1.492       .  S
C1082      C1083   1.410       .  A
C1083      C1084   1.414       .  A
C1083      C1088   1.449       .  S
C1084      C1085   1.414       .  A
C1084      C1100   1.450       .  S
C1085      C1086   1.415       .  A
C1086      C1089   1.453       .  S
C1087      C1090   1.410       .  A
C1087      C1094   1.409       .  A
C1088      N1105   1.157       .  T
C1089      N1107   1.157       .  T
C1090      C1091   1.411       .  A
C1090      C1095   1.450       .  S
C1091      C1092   1.408       .  A
C1091      C1097   1.445       .  S
C1092      C1093   1.414       .  A
C1093      C1094   1.409       .  A
C1093      C1096   1.451       .  S
C1094      C1098   1.451       .  S
C1095      N1102   1.157       .  T
C1096      N1103   1.157   1_554  T
C1097      N1101   1.156       .  T
C1098      N1104   1.157       .  T
C1099      N1108   1.157       .  T
C1100      N1106   1.157       .  T
C1109      C1110   1.412       .  A
C1109      C1114   1.408       .  A
C1109      C1127   1.449       .  S
C1110      C1115   1.489       .  S
C1110      C1111   1.409       .  A
C1111      C1112   1.407       .  A
C1111      C1116   1.451       .  S
C1112      C1113   1.412       .  A
C1112      C1128   1.452       .  S
C1113      C1114   1.405       .  A
C1114      C1117   1.447   1_455  S
C1115      C1118   1.411       .  A
C1115      C1122   1.409       .  A
C1116      N1133   1.157       .  T
C1117      N1135   1.157       .  T
C1118      C1119   1.403       .  A
C1118      C1123   1.454       .  S
C1119      C1120   1.415       .  A
C1119      C1125   1.453       .  S
C1120      C1121   1.415       .  A
C1121      C1122   1.413       .  A
C1121      C1124   1.450       .  S
C1122      C1126   1.449       .  S
C1123      N1130   1.157       .  T
C1124      N1131   1.157       .  T
C1125      N1129   1.157       .  T
C1126      N1132   1.157       .  T
C1127      N1136   1.157       .  T
C1128      N1134   1.157       .  T
C1137      C1138   1.411       .  A
C1137      C1142   1.413       .  A
C1137      C1155   1.449       .  S
C1138      C1143   1.491       .  S
C1138      C1139   1.411       .  A
C1139      C1140   1.405       .  A
C1139      C1144   1.453       .  S
C1140      C1141   1.413       .  A
C1140      C1156   1.453       .  S
C1141      C1142   1.412       .  A
C1142      C1145   1.450       .  S
C1143      C1146   1.410       .  A
C1143      C1150   1.413       .  A
C1144      N1161   1.157       .  T
C1145      N1163   1.157       .  T
C1146      C1147   1.405       .  A
C1146      C1151   1.451       .  S
C1147      C1148   1.412       .  A
C1147      C1153   1.452       .  S
C1148      C1149   1.406       .  A
C1149      C1150   1.412       .  A
C1149      C1152   1.447       .  S
C1150      C1154   1.449       .  S
C1151      N1158   1.157       .  T
C1152      N1159   1.157       .  T
C1153      N1157   1.157       .  T
C1154      N1160   1.157       .  T
C1155      N1164   1.157       .  T
C1156      N1162   1.157       .  T
C1165      C1166   1.411       .  A
C1165      C1170   1.402       .  A
C1165      C1183   1.453       .  S
C1166      C1171   1.485       .  S
C1166      C1167   1.409       .  A
C1167      C1168   1.410       .  A
C1167      C1172   1.449       .  S
C1168      C1169   1.411       .  A
C1168      C1184   1.449       .  S
C1169      C1170   1.413       .  A
C1170      C1173   1.453       .  S
C1171      C1174   1.410       .  A
C1171      C1178   1.409       .  A
C1172      N1189   1.157       .  T
C1173      N1191   1.157       .  T
C1174      C1175   1.410       .  A
C1174      C1179   1.449       .  S
C1175      C1176   1.408       .  A
C1175      C1181   1.447       .  S
C1176      C1177   1.412       .  A
C1177      C1178   1.403       .  A
C1177      C1180   1.453       .  S
C1178      C1182   1.452       .  S
C1179      N1186   1.157       .  T
C1180      N1187   1.157       .  T
C1181      N1185   1.156       .  T
C1182      N1188   1.157       .  T
C1183      N1192   1.157       .  T
C1184      N1190   1.157       .  T
C1193      C1194   1.410       .  A
C1193      C1198   1.413       .  A
C1193      C1211   1.449       .  S
C1194      C1199   1.491       .  S
C1194      C1195   1.413       .  A
C1195      C1196   1.404       .  A
C1195      C1200   1.453       .  S
C1196      C1197   1.412       .  A
C1196      C1212   1.453       .  S
C1197      C1198   1.412       .  A
C1198      C1201   1.450       .  S
C1199      C1202   1.410       .  A
C1199      C1206   1.411       .  A
C1200      N1217   1.157       .  T
C1201      N1219   1.157       .  T
C1202      C1203   1.408       .  A
C1202      C1207   1.450       .  S
C1203      C1204   1.411       .  A
C1203      C1209   1.450       .  S
C1204      C1205   1.406       .  A
C1205      C1206   1.410       .  A
C1205      C1208   1.444       .  S
C1206      C1210   1.449       .  S
C1207      N1214   1.157       .  T
C1208      N1215   1.156       .  T
C1209      N1213   1.157       .  T
C1210      N1216   1.157       .  T
C1211      N1220   1.157       .  T
C1212      N1218   1.157       .  T
C1221      C1222   1.408       .  A
C1221      C1226   1.407       .  A
C1221      C1239   1.453       .  S
C1222      C1227   1.492       .  S
C1222      C1223   1.404       .  A
C1223      C1224   1.412       .  A
C1223      C1228   1.452       .  S
C1224      C1225   1.428       .  A
C1224      C1240   1.450       .  S
C1225      C1226   1.423       .  A
C1226      C1229   1.452       .  S
C1227      C1230   1.409       .  A
C1227      C1234   1.408       .  A
C1228      N1245   1.157       .  T
C1229      N1247   1.157       .  T
C1230      C1231   1.406       .  A
C1230      C1235   1.452       .  S
C1231      C1232   1.417       .  A
C1231      C1237   1.453       .  S
C1232      C1233   1.420       .  A
C1233      C1234   1.411       .  A
C1233      C1236   1.450       .  S
C1234      C1238   1.451       .  S
C1235      N1242   1.157       .  T
C1236      N1243   1.157       .  T
C1237      N1241   1.158       .  T
C1238      N1244   1.157       .  T
C1239      N1248   1.157       .  T
C1240      N1246   1.158       .  T
