geometry optimzed in LAMMPS
_audit_creation_date              2020-11-30 
_audit_creation_method            'lammps2cif' 
_symmetry_space_group_name_H-M    'P1' 
_symmetry_Int_Tables_number       1 
_symmetry_cell_setting            triclinic 
loop_ 
_symmetry_equiv_pos_as_xyz 
  x,y,z 
_cell_length_a                    51.06133741 
_cell_length_b                    49.53178114136286 
_cell_length_c                    43.80643693423605 
_cell_angle_alpha                 88.692084671609 
_cell_angle_beta                  90.59266496268866 
_cell_angle_gamma                 89.81652744154417 
loop_ 
_atom_site_label 
_atom_site_type_symbol 
_atom_site_fract_x 
_atom_site_fract_y 
_atom_site_fract_z 
_atom_site_charge 
Zr1        Zr  0.38607442  0.64662606  0.08593487     2.17500
O2          O  0.36725108  0.67250519  0.12707390    -0.51000
O3          O  0.36715521  0.67175352  0.04023122    -0.74200
O4          O  0.41125258  0.68801104  0.09070422    -0.81000
O5          O  0.32695598  0.60368891  0.06805245    -0.82800
O6          O  0.45439283  0.67655841  0.09327149    -0.78400
O7          O  0.33946526  0.64493198  0.08480790    -0.90000
O8          O  0.38569193  0.65570928  0.99729180    -0.76000
O9          O  0.42509636  0.64790692  0.05749455    -0.85500
O10         O  0.37681338  0.61808296  0.04449569    -0.85200
O11         O  0.41888000  0.62721739  0.12081281    -0.71900
O12         O  0.37730447  0.60277616  0.10992908    -0.84100
Zr13       Zr  0.44102574  0.55811485  0.06700276     2.26400
Zr14       Zr  0.45773347  0.62830481  0.09117422     2.06300
Zr15       Zr  0.36634894  0.57555550  0.06739765     2.10000
Zr16       Zr  0.41561429  0.62081441  0.01507757     1.78800
O17         O  0.33753458  0.55532647  0.10546958    -0.92900
O18         O  0.44456541  0.65834786  0.00236175    -0.40700
O19         O  0.40564044  0.57822152  0.03785029    -0.77300
O20         O  0.44998340  0.60234698  0.04625709    -0.96000
O21         O  0.45118083  0.58352875  0.11076308    -0.89300
O22         O  0.40186126  0.55660969  0.09677181    -0.92100
C23         C  0.36931356  0.67079813  0.01074040     1.01600
C24         C  0.32235824  0.62801548  0.07601845     1.14600
C25         C  0.43572866  0.69370125  0.09252390     1.05300
O26         O  0.49756273  0.65488325  0.08565124    -0.94300
O27         O  0.49606677  0.60747906  0.07105775    -0.90000
O28         O  0.48804014  0.56240547  0.07139910    -0.83200
C29         C  0.50240704  0.58306728  0.06617944     1.12000
O30         O  0.39928710  0.60368114  0.18628216    -0.96300
Zr31       Zr  0.41244651  0.58095355  0.14001516     1.88900
O32         O  0.45147422  0.52189729  0.10196821    -0.72900
O33         O  0.47293216  0.62685518  0.14400435    -0.52200
O34         O  0.44743466  0.58329270  0.17812738    -0.96900
O35         O  0.37591749  0.55858684  0.16536178    -0.54100
O36         O  0.42813196  0.53175506  0.14432175    -0.73400
C37         C  0.44199439  0.51531618  0.12790353     0.98900
O38         O  0.46065838  0.54190735  0.02062794    -0.62200
O39         O  0.34071898  0.56237362  0.02308194    -0.57100
O40         O  0.41452486  0.51802239  0.06118499    -0.93700
O41         O  0.37272045  0.52796973  0.05697499    -0.92200
O42         O  0.39387874  0.60547815  0.96889638    -0.92500
O43         O  0.44287689  0.60184096  0.97548261    -0.91300
C44         C  0.39426528  0.52157714  0.04465171     1.17800
H45         H  0.36169878  0.62327816  0.03233511     0.33700
H46         H  0.46467603  0.60191415  0.03266799     0.44600
H47         H  0.39673153  0.53887889  0.10396980     0.38100
H48         H  0.42092335  0.63902684  0.13792350     0.34600
H49         H  0.43413909  0.67942779  0.51287495     0.26300
H50         H  0.49180486  0.62241008  0.14277671     0.32300
H51         H  0.45975844  0.56864432  0.17300727     0.38200
H52         H  0.37501455  0.60529383  0.97390898     0.32700
H53         H  0.32457298  0.55436651  0.03167360     0.31500
H54         H  0.31964987  0.55717919  0.09671986     0.33200
H55         H  0.37302321  0.54184520  0.15390628     0.32200
H56         H  0.46267720  0.61825838  0.48016209     0.36200
H57         H  0.46404814  0.55834188  0.00805171     0.28900
H58         H  0.35997360  0.68900294  0.11694580     0.33100
H59         H  0.40109106  0.59004604  0.20306789     0.36000
H60         H  0.33489428  0.57960592  0.01328106     0.28600
H61         H  0.47830636  0.53521496  0.02657261     0.41500
H62         H  0.49749483  0.66127006  0.06404372     0.31500
H63         H  0.44112556  0.66253773  0.98048330     0.39200
H64         H  0.36048919  0.57005181  0.16027604     0.31000
H65         H  0.47248766  0.64591089  0.15033379     0.31100
H66         H  0.38236629  0.67890842  0.13922102     0.31300
Zr67       Zr  0.39352356  0.81298916  0.06444697     2.17500
O68         O  0.39997522  0.78578569  0.52555399    -0.51000
O69         O  0.37636518  0.77825450  0.10028131    -0.74200
O70         O  0.42630029  0.77871368  0.05992426    -0.81000
O71         O  0.32701814  0.84351657  0.06368729    -0.82800
O72         O  0.45577228  0.79031357  0.09594230    -0.78400
O73         O  0.34926416  0.80571499  0.05058605    -0.90000
O74         O  0.37929114  0.79421934  0.14847758    -0.76000
O75         O  0.42075705  0.81538410  0.10831505    -0.85500
O76         O  0.36849565  0.83616594  0.10107889    -0.85200
O77         O  0.43146358  0.83693511  0.04622332    -0.71900
O78         O  0.38319914  0.85595224  0.04004236    -0.84100
Zr79       Zr  0.42454881  0.90650122  0.10572734     2.26400
Zr80       Zr  0.45835514  0.83942455  0.09108370     2.06300
Zr81       Zr  0.35846319  0.87902369  0.07744868     2.10000
Zr82       Zr  0.39636277  0.83906212  0.14460285     1.78800
O83         O  0.34612547  0.90873808  0.03456886    -0.92900
O84         O  0.42490358  0.81411095  0.18030734    -0.40700
O85         O  0.38728226  0.88091763  0.12007851    -0.77300
O86         O  0.43444133  0.86298698  0.12941163    -0.96000
O87         O  0.44989390  0.88360306  0.06928906    -0.89300
O88         O  0.39619103  0.90519114  0.06213768    -0.92100
C89         C  0.37287759  0.77631404  0.12938479     1.01600
C90         C  0.32832502  0.81908445  0.05441249     1.14600
C91         C  0.44363252  0.77282616  0.08005536     1.05300
O92         O  0.49810171  0.81816738  0.11156135    -0.94300
O93         O  0.48621863  0.86459100  0.12485860    -0.90000
O94         O  0.46519165  0.90403997  0.13411642    -0.83200
C95         C  0.48387875  0.88714159  0.13815340     1.12000
O96         O  0.43819292  0.85269132  0.48576012    -0.96300
Zr97       Zr  0.42171315  0.88169794  0.02571210     1.88900
O98         O  0.44027309  0.94250313  0.07172632    -0.72900
O99         O  0.48768342  0.83918215  0.04761032    -0.52200
O100        O  0.46434506  0.87766216  0.00166452    -0.96900
O101        O  0.40981539  0.89633697  0.48822236    -0.54100
O102        O  0.44044601  0.92761978  0.02321532    -0.73400
C103        C  0.44516312  0.94566493  0.04324233     0.98900
O104        O  0.43226667  0.94595882  0.13673663    -0.62200
O105        O  0.31360308  0.89337111  0.08726570    -0.57100
O106        O  0.38916890  0.92678508  0.13379266    -0.93700
O107        O  0.35026027  0.90759934  0.12110977    -0.92200
O108        O  0.35438618  0.84402281  0.16981322    -0.92500
O109        O  0.39991334  0.86411330  0.19169473    -0.91300
C110        C  0.36459328  0.92298306  0.13746363     1.17800
H111        H  0.35292182  0.82657394  0.10722069     0.33700
H112        H  0.44332867  0.86371844  0.14887612     0.44600
H113        H  0.39145600  0.92319892  0.05512442     0.38100
H114        H  0.44002957  0.82643737  0.03088525     0.34600
H115        H  0.43599735  0.80280001  0.16726591     0.26300
H116        H  0.50181378  0.85189526  0.05306344     0.32300
H117        H  0.48799083  0.88619611  0.52837423     0.38200
H118        H  0.34914350  0.86301800  0.16559859     0.32700
H119        H  0.30379240  0.89092813  0.06792134     0.31500
H120        H  0.33394800  0.89786870  0.02215866     0.33200
H121        H  0.40351387  0.91427650  0.49448125     0.32200
H122        H  0.40739498  0.88176927  0.18537929     0.36200
H123        H  0.43574349  0.93881503  0.15770975     0.28900
H124        H  0.39658737  0.76689638  0.53224700     0.33100
H125        H  0.44780151  0.86495516  0.47166759     0.36000
H126        H  0.30649241  0.87942997  0.10145251     0.28600
H127        H  0.44918208  0.95364842  0.12999986     0.41500
H128        H  0.49324116  0.81105117  0.13205018     0.31500
H129        H  0.43711710  0.82763493  0.18863516     0.39200
H130        H  0.39377256  0.88531676  0.48624072     0.31000
H131        H  0.49612119  0.82115466  0.04857165     0.31100
H132        H  0.41860893  0.78595987  0.51949363     0.31300
Zr133      Zr  0.06072008  0.84066176  0.32915522     2.17500
O134        O  0.04573231  0.81244590  0.37178133    -0.51000
O135        O  0.09741960  0.81312238  0.31130909    -0.74200
O136        O  0.03961054  0.80051603  0.31039850    -0.81000
O137        O  0.10648374  0.88007639  0.38001227    -0.82800
O138        O  0.01644299  0.81332309  0.26792736    -0.78400
O139        O  0.08919041  0.83832356  0.37269797    -0.90000
O140        O  0.11938409  0.83826611  0.27583233    -0.76000
O141        O  0.06324243  0.84669673  0.27546624    -0.85500
O142        O  0.09481956  0.87229868  0.31970875    -0.85200
O143        O  0.01768145  0.85710101  0.31553341    -0.71900
O144        O  0.04750185  0.88072455  0.35537842    -0.84100
Zr145      Zr  0.04214643  0.93509628  0.27611149     2.26400
Zr146      Zr  0.02072812  0.86250954  0.26145309     2.06300
Zr147      Zr  0.08255442  0.91179818  0.34614499     2.10000
Zr148      Zr  0.09643530  0.87967454  0.26635436     1.78800
O149        O  0.07421319  0.92380671  0.39871143    -0.92900
O150        O  0.09929934  0.85819637  0.21695803    -0.40700
O151        O  0.08490059  0.91998845  0.29191909    -0.77300
O152        O  0.05447708  0.89496057  0.25013118    -0.96000
O153        O  0.00758300  0.90378987  0.28482652    -0.89300
O154        O  0.04074688  0.92879379  0.33010793    -0.92100
C155        C  0.11613511  0.81702992  0.29225321     1.01600
C156        C  0.10510305  0.85448389  0.38539690     1.14600
C157        C  0.02483908  0.79546209  0.28746779     1.05300
O158        O  0.02397769  0.83963658  0.21303613    -0.94300
O159        O  0.00876328  0.89092196  0.21839704    -0.90000
O160        O  0.01848895  0.93496591  0.22761430    -0.83200
C161        C  0.00922788  0.91606155  0.21113948     1.12000
O162        O  0.98115244  0.86927192  0.37256406    -0.96300
Zr163      Zr  0.00557224  0.89935594  0.33865999     1.88900
O164        O  0.00849169  0.96658820  0.29213172    -0.72900
O165        O  0.97353916  0.85534110  0.26074511    -0.52200
O166        O  0.96092332  0.89449642  0.31965385    -0.96900
O167        O  0.00185295  0.91181957  0.39189706    -0.54100
O168        O  0.99044761  0.94779738  0.33479321    -0.73400
C169        C  0.99397093  0.96795840  0.31579543     0.98900
O170        O  0.06221033  0.96608119  0.23945718    -0.62200
O171        O  0.12762226  0.92786895  0.34602026    -0.57100
O172        O  0.06228619  0.97321813  0.29945040    -0.93700
O173        O  0.08272242  0.96102253  0.34431703    -0.92200
O174        O  0.14062855  0.89397640  0.27957822    -0.92500
O175        O  0.11539925  0.90892277  0.22699961    -0.91300
C176        C  0.07412085  0.97846804  0.32449083     1.17800
H177        H  0.11173775  0.86562222  0.32644415     0.33700
H178        H  0.05585068  0.89844224  0.22844469     0.44600
H179        H  0.03728189  0.94515910  0.34085562     0.38100
H180        H  0.00477572  0.84355222  0.32056467     0.34600
H181        H  0.11808541  0.85371024  0.21470871     0.26300
H182        H  0.96995126  0.84683415  0.24089969     0.32300
H183        H  0.95096924  0.90914481  0.32931923     0.38200
H184        H  0.15231753  0.88078675  0.26984810     0.32700
H185        H  0.13843522  0.91140174  0.34391031     0.31500
H186        H  0.06308028  0.90904454  0.40686795     0.33200
H187        H  0.98544936  0.92248954  0.39270572     0.32200
H188        H  0.10022584  0.91733491  0.21618744     0.36200
H189        H  0.06392540  0.95565226  0.22058244     0.28900
H190        H  0.05316655  0.79428762  0.36835390     0.33100
H191        H  0.99400037  0.85524748  0.37917550     0.36000
H192        H  0.12948019  0.93768362  0.32621647     0.28600
H193        H  0.04847196  0.97971361  0.23467542     0.41500
H194        H  0.04265333  0.83444945  0.21165406     0.31500
H195        H  0.09067977  0.84047288  0.21996412     0.39200
H196        H  0.01594092  0.92518721  0.39497908     0.31000
H197        H  0.97044582  0.84081250  0.27616453     0.31100
H198        H  0.02664267  0.81043203  0.36839067     0.31300
Zr199      Zr  0.05154528  0.66074249  0.25551370     2.17500
O200        O  0.06488267  0.69325928  0.21599301    -0.51000
O201        O  0.09306709  0.67801965  0.27839733    -0.74200
O202        O  0.02952157  0.70389076  0.25939946    -0.81000
O203        O  0.09362794  0.60925183  0.22089806    -0.82800
O204        O  0.00519638  0.70027576  0.30230071    -0.78400
O205        O  0.06216999  0.63834072  0.20944299    -0.90000
O206        O  0.08224689  0.67509896  0.32754260    -0.76000
O207        O  0.04175160  0.66271723  0.30825380    -0.85500
O208        O  0.07957159  0.62681166  0.27842886    -0.85200
O209        O  0.00521465  0.65033015  0.25866737    -0.71900
O210        O  0.03816155  0.61840132  0.23331852    -0.84100
Zr211      Zr  0.01205793  0.57645571  0.31649537     2.26400
Zr212      Zr  0.99639608  0.65216955  0.31197686     2.06300
Zr213      Zr  0.06618537  0.58457217  0.25631288     2.10000
Zr214      Zr  0.06913469  0.62924725  0.33152358     1.78800
O215        O  0.05391420  0.55180417  0.21803315    -0.92900
O216        O  0.06577298  0.64657339  0.38293720    -0.40700
O217        O  0.05535613  0.58991175  0.30777334    -0.77300
O218        O  0.02413595  0.61920716  0.33804740    -0.96000
O219        O  0.98320553  0.60887808  0.29302814    -0.89300
O220        O  0.02126514  0.57261309  0.26337676    -0.92100
C221        C  0.09788582  0.68239718  0.30681336     1.01600
C222        C  0.08566671  0.63064095  0.20719234     1.14600
C223        C  0.01630602  0.71411564  0.28094024     1.05300
O224        O  0.98060508  0.68373287  0.34951306    -0.94300
O225        O  0.97910326  0.63520913  0.35957639    -0.90000
O226        O  0.98440001  0.58956803  0.35830712    -0.83200
C227        C  0.97736667  0.61138228  0.37109022     1.12000
O228        O  0.97728681  0.63053233  0.19487880    -0.96300
Zr229      Zr  0.99295744  0.60577709  0.24015794     1.88900
O230        O  0.98300929  0.54443695  0.29234066    -0.72900
O231        O  0.95261958  0.65929260  0.29082606    -0.52200
O232        O  0.94700223  0.61892787  0.24178297    -0.96900
O233        O  0.00116453  0.58505389  0.19120445    -0.54100
O234        O  0.97149415  0.56085505  0.24532882    -0.73400
C235        C  0.97133202  0.54229676  0.26653764     0.98900
O236        O  0.00581594  0.53819344  0.35162143    -0.62200
O237        O  0.10693533  0.56004401  0.24817861    -0.57100
O238        O  0.05064972  0.54978635  0.33210835    -0.93700
O239        O  0.08234261  0.55344853  0.29605796    -0.92200
O240        O  0.11613663  0.62068908  0.33068807    -0.92500
O241        O  0.08042109  0.59724677  0.37267547    -0.91300
C242        C  0.07370355  0.54491528  0.32189756     1.17800
H243        H  0.09798670  0.62976870  0.27482680     0.33700
H244        H  0.02325669  0.61909926  0.36001082     0.44600
H245        H  0.01890748  0.55457680  0.25607805     0.38100
H246        H  0.99511765  0.66401219  0.24771696     0.34600
H247        H  0.08336162  0.65392024  0.38751482     0.26300
H248        H  0.94118859  0.66002543  0.30891321     0.32300
H249        H  0.93806163  0.60351875  0.25193883     0.38200
H250        H  0.12311522  0.62994231  0.34883113     0.32700
H251        H  0.10845059  0.55847383  0.22577298     0.31500
H252        H  0.05824428  0.53404387  0.22768066     0.33200
H253        H  0.00128277  0.56536623  0.19563718     0.32200
H254        H  0.06364870  0.58847155  0.37810970     0.36200
H255        H  0.00899260  0.54520427  0.37232587     0.28900
H256        H  0.07148994  0.70917412  0.22693726     0.33100
H257        H  0.99213233  0.64226757  0.18891449     0.36000
H258        H  0.12101185  0.57270382  0.25400024     0.28600
H259        H  0.98681966  0.53441471  0.35075353     0.41500
H260        H  0.99597552  0.68721429  0.36282595     0.31500
H261        H  0.05433126  0.66268837  0.38066127     0.39200
H262        H  0.01962049  0.58941684  0.18652057     0.31000
H263        H  0.95283108  0.67807909  0.28260626     0.31100
H264        H  0.04852696  0.69943428  0.20565404     0.31300
Zr265      Zr  0.20023332  0.75662366  0.38230226     2.17500
O266        O  0.19783082  0.79346824  0.34456069    -0.51000
O267        O  0.16605656  0.73252602  0.35646360    -0.74200
O268        O  0.21926447  0.74082825  0.33511395    -0.81000
O269        O  0.15795357  0.79089873  0.44358783    -0.82800
O270        O  0.25927419  0.72099166  0.34266850    -0.78400
O271        O  0.16823977  0.79210518  0.39296327    -0.90000
O272        O  0.16884975  0.68969921  0.37601293    -0.76000
O273        O  0.22178447  0.71418225  0.38563029    -0.85500
O274        O  0.17658982  0.73170207  0.42048668    -0.85200
O275        O  0.24597680  0.76441399  0.39247789    -0.71900
O276        O  0.20419041  0.78015981  0.42874298    -0.84100
Zr277      Zr  0.24760316  0.72230962  0.48135197     2.26400
Zr278      Zr  0.26710475  0.72071784  0.39870502     2.06300
Zr279      Zr  0.18238899  0.75442366  0.46813885     2.10000
Zr280      Zr  0.19786502  0.68890853  0.42187119     1.78800
O281        O  0.16147721  0.78688315  0.50106854    -0.92900
O282        O  0.21474990  0.65265725  0.39085677    -0.40700
O283        O  0.20292538  0.71121895  0.47018779    -0.77300
O284        O  0.24331021  0.69552222  0.43656791    -0.96000
O285        O  0.27039542  0.74712959  0.44311630    -0.89300
O286        O  0.22679433  0.76501594  0.47838460    -0.92100
C287        C  0.15967072  0.70761606  0.35680501     1.01600
C288        C  0.15617073  0.80094615  0.41645639     1.14600
C289        C  0.23973154  0.72855508  0.32545732     1.05300
O290        O  0.27801124  0.67488687  0.38431354    -0.94300
O291        O  0.30523550  0.70822466  0.43375534    -0.90000
O292        O  0.29106601  0.70558433  0.48282509    -0.83200
C293        C  0.30885895  0.70373055  0.46294675     1.12000
O294        O  0.24767222  0.82633599  0.40068323    -0.96300
Zr295      Zr  0.24864581  0.78946542  0.43843691     1.88900
O296        O  0.27034277  0.75167286  0.01388826    -0.72900
O297        O  0.30617420  0.74011162  0.37560836    -0.52200
O298        O  0.29245989  0.80550559  0.42648275    -0.96900
O299        O  0.22749210  0.82922020  0.45901956    -0.54100
O300        O  0.27295551  0.79484492  0.48441132    -0.73400
C301        C  0.27666957  0.77670401  0.01086318     0.98900
O302        O  0.25154114  0.67716812  0.01049243    -0.62200
O303        O  0.14116765  0.72812246  0.97546109    -0.57100
O304        O  0.22656968  0.72270675  0.03089817    -0.93700
O305        O  0.18875184  0.74668999  0.02606756    -0.92200
O306        O  0.15649461  0.67230142  0.44203583    -0.92500
O307        O  0.20079503  0.64622652  0.45039369    -0.91300
C308        C  0.20685187  0.73463576  0.04208365     1.17800
H309        H  0.15821259  0.73034243  0.41532062     0.33700
H310        H  0.25163557  0.67816844  0.44016507     0.44600
H311        H  0.22688672  0.77246756  0.99909868     0.38100
H312        H  0.25368132  0.77451214  0.37573167     0.34600
H313        H  0.19900090  0.64288745  0.38381601     0.26300
H314        H  0.31115079  0.72732873  0.35959730     0.32300
H315        H  0.30146724  0.78965447  0.41800814     0.38200
H316        H  0.14282555  0.68035993  0.42844010     0.32700
H317        H  0.14026537  0.72346166  0.99752457     0.31500
H318        H  0.14295835  0.77918242  0.00742654     0.33200
H319        H  0.22272978  0.82381860  0.48013516     0.32200
H320        H  0.20328028  0.65145124  0.47191247     0.36200
H321        H  0.23348658  0.67089964  0.01453512     0.28900
H322        H  0.18710440  0.78626163  0.32767425     0.33100
H323        H  0.23092829  0.82398819  0.38946617     0.36000
H324        H  0.12834306  0.74049169  0.46497207     0.28600
H325        H  0.25831166  0.66429481  0.99548870     0.41500
H326        H  0.29274448  0.67704140  0.36995934     0.31500
H327        H  0.22149502  0.66177329  0.37219797     0.39200
H328        H  0.21049232  0.83076805  0.44801344     0.31000
H329        H  0.29991887  0.75642520  0.36423827     0.31100
H330        H  0.21570449  0.79496992  0.33616314     0.31300
Zr331      Zr  0.19476126  0.71077564  0.23212264     2.17500
O332        O  0.18091940  0.67406383  0.26619348    -0.51000
O333        O  0.16940366  0.74422556  0.25711806    -0.74200
O334        O  0.21595655  0.71762266  0.28140114    -0.81000
O335        O  0.14580568  0.69632108  0.16784820    -0.82800
O336        O  0.25996954  0.72303068  0.27623441    -0.78400
O337        O  0.15290722  0.69061928  0.21914574    -0.90000
O338        O  0.18513758  0.78437894  0.23899210    -0.76000
O339        O  0.22857633  0.74339732  0.23258456    -0.85500
O340        O  0.18139623  0.74450689  0.19504707    -0.85200
O341        O  0.23457103  0.68677512  0.22228258    -0.71900
O342        O  0.19173377  0.68973781  0.18398284    -0.84100
Zr343      Zr  0.25201362  0.73055871  0.13612097     2.26400
Zr344      Zr  0.26836701  0.72058165  0.22073634     2.06300
Zr345      Zr  0.17994886  0.72367882  0.14635947     2.10000
Zr346      Zr  0.21549190  0.77696578  0.19657692     1.78800
O347        O  0.14984304  0.70196940  0.11115216    -0.92900
O348        O  0.24124645  0.80374762  0.23184695    -0.40700
O349        O  0.21375800  0.75668899  0.14697089    -0.77300
O350        O  0.25563933  0.75442425  0.18327266    -0.96000
O351        O  0.26471738  0.69738313  0.17360708    -0.89300
O352        O  0.21818579  0.69819570  0.13556638    -0.92100
C353        C  0.17031252  0.76995086  0.25651545     1.01600
C354        C  0.14012592  0.68670474  0.19422639     1.14600
C355        C  0.23894729  0.72223001  0.29237592     1.05300
O356        O  0.29853927  0.74978856  0.24780675    -0.94300
O357        O  0.30844215  0.73148958  0.19138620    -0.90000
O358        O  0.29854082  0.73262270  0.14052513    -0.83200
C359        C  0.31456202  0.73410446  0.16290303     1.12000
O360        O  0.21222814  0.62843002  0.20481599    -0.96300
Zr361      Zr  0.23021433  0.66524883  0.17389053     1.88900
O362        O  0.26681897  0.69288081  0.10571617    -0.72900
O363        O  0.29324155  0.68066510  0.23701266    -0.52200
O364        O  0.26470031  0.63450229  0.19169159    -0.96900
O365        O  0.19972638  0.63643007  0.14652071    -0.54100
O366        O  0.25357434  0.65376271  0.12891977    -0.73400
C367        C  0.26501149  0.66704357  0.10770544     0.98900
O368        O  0.27133470  0.76857204  0.10808998    -0.62200
O369        O  0.15040039  0.76235985  0.14306654    -0.57100
O370        O  0.23073524  0.73590131  0.08710711    -0.93700
O371        O  0.18671722  0.73151422  0.09143600    -0.92200
O372        O  0.18256826  0.80719372  0.17402053    -0.92500
O373        O  0.23460845  0.81745237  0.17358465    -0.91300
C374        C  0.20757342  0.73474325  0.07567938     1.17800
H375        H  0.16442605  0.75208241  0.19935308     0.33700
H376        H  0.26930843  0.76778716  0.18149307     0.44600
H377        H  0.21617111  0.68992549  0.11592738     0.38100
H378        H  0.23812281  0.67355924  0.23836368     0.34600
H379        H  0.23626365  0.79704197  0.25243980     0.26300
H380        H  0.30693914  0.67885410  0.22134285     0.32300
H381        H  0.28117191  0.64294393  0.18461174     0.38200
H382        H  0.18169828  0.82254122  0.18807442     0.32700
H383        H  0.15036470  0.76789273  0.12120301     0.31500
H384        H  0.13664501  0.71598076  0.10561435     0.33200
H385        H  0.21064896  0.62562862  0.13277143     0.32200
H386        H  0.24239115  0.81125921  0.15434496     0.36200
H387        H  0.25627538  0.77963704  0.10071302     0.28900
H388        H  0.17634791  0.68281220  0.28552272     0.33100
H389        H  0.19582051  0.63585926  0.21313986     0.36000
H390        H  0.13278584  0.75462632  0.14647473     0.28600
H391        H  0.27968166  0.77976994  0.12388480     0.41500
H392        H  0.31201206  0.73742866  0.25669511     0.31500
H393        H  0.25947265  0.79731773  0.22940590     0.39200
H394        H  0.18975189  0.64887279  0.13269731     0.31000
H395        H  0.30288342  0.68621251  0.25554715     0.31100
H396        H  0.19710502  0.66370397  0.27102505     0.31300
Zr397      Zr  0.57536268  0.96561615  0.20730003     2.17500
O398        O  0.54812978  0.99820543  0.17879511    -0.51000
O399        O  0.53944257  0.98384695  0.23817498    -0.74200
O400        O  0.54214447  0.93435042  0.19216449    -0.81000
O401        O  0.63351448  0.00078311  0.16789228    -0.82800
O402        O  0.54671043  0.89519396  0.22033847    -0.78400
O403        O  0.59095997  0.98817326  0.16106639    -0.90000
O404        O  0.55138331  0.97804942  0.28770090    -0.76000
O405        O  0.57216801  0.94095210  0.25410917    -0.85500
O406        O  0.60276792  0.99103864  0.24018605    -0.85200
O407        O  0.58998777  0.92030112  0.19611293    -0.71900
O408        O  0.61830129  0.96034725  0.19490738    -0.84100
Zr409      Zr  0.65970179  0.91840025  0.25522712     2.26400
Zr410      Zr  0.58932982  0.89667616  0.24495236     2.06300
Zr411      Zr  0.64677115  0.98723605  0.21996719     2.10000
Zr412      Zr  0.59934147  0.96576441  0.28711227     1.78800
O413        O  0.67126305  0.02267069  0.19329486    -0.92900
O414        O  0.58300732  0.94294344  0.33292648    -0.40700
O415        O  0.64400967  0.96311413  0.26748874    -0.77300
O416        O  0.61704696  0.92113227  0.27877681    -0.96000
O417        O  0.63145951  0.89502049  0.22184659    -0.89300
O418        O  0.66284069  0.94309249  0.20831504    -0.92100
C419        C  0.53411879  0.98438558  0.26677224     1.01600
C420        C  0.61264591  0.99819563  0.15152826     1.14600
C421        C  0.53517513  0.91052912  0.20040839     1.05300
O422        O  0.56044199  0.88395541  0.28672987    -0.94300
O423        O  0.61211556  0.86258645  0.27721645    -0.90000
O424        O  0.65403219  0.87726209  0.28321791    -0.83200
C425        C  0.63565201  0.86043175  0.28783111     1.12000
O426        O  0.61439263  0.93312688  0.12576211    -0.96300
Zr427      Zr  0.63297593  0.92065324  0.17552637     1.88900
O428        O  0.68093055  0.88183394  0.22546518    -0.72900
O429        O  0.58421802  0.85342930  0.22020786    -0.52200
O430        O  0.61485856  0.88214928  0.14880633    -0.96900
O431        O  0.66507673  0.93959541  0.14029838    -0.54100
O432        O  0.66456756  0.88437455  0.17710707    -0.73400
C433        C  0.67909856  0.87332768  0.19775094     0.98900
O434        O  0.68538505  0.91725534  0.30264306    -0.62200
O435        O  0.64218224  0.02699842  0.25136777    -0.57100
O436        O  0.70207485  0.93973177  0.25278294    -0.93700
O437        O  0.69396588  0.98196955  0.23354427    -0.92200
O438        O  0.60149706  0.01319419  0.30032864    -0.92500
O439        O  0.62357636  0.97189147  0.33460336    -0.91300
C440        C  0.70946932  0.96339046  0.24442805     1.17800
H441        H  0.59643670  0.00938270  0.24134920     0.33700
H442        H  0.61771695  0.91197362  0.29847119     0.44600
H443        H  0.68018547  0.94297903  0.19976513     0.38100
H444        H  0.58028279  0.91112758  0.18048060     0.34600
H445        H  0.57010901  0.95562869  0.34143435     0.26300
H446        H  0.60220044  0.84602085  0.21891994     0.32300
H447        H  0.61074650  0.86870352  0.16510889     0.38200
H448        H  0.58455137  0.01693348  0.31018985     0.32700
H449        H  0.66021237  0.03124084  0.25822625     0.31500
H450        H  0.68349189  0.03005550  0.20865906     0.33200
H451        H  0.68204149  0.93136758  0.14661652     0.32200
H452        H  0.64219289  0.96946763  0.32914481     0.36200
H453        H  0.68799293  0.93643477  0.30779743     0.28900
H454        H  0.54864764  0.01498979  0.19066142     0.33100
H455        H  0.59591906  0.93779178  0.12989747     0.36000
H456        H  0.63743149  0.04186869  0.23683908     0.28600
H457        H  0.67335050  0.91054008  0.31866097     0.41500
H458        H  0.54548230  0.89667194  0.28485189     0.31500
H459        H  0.57231484  0.92785784  0.32525789     0.39200
H460        H  0.66659753  0.95881364  0.14576490     0.31000
H461        H  0.57546912  0.84168485  0.23555892     0.31100
H462        H  0.52990400  0.99162668  0.18060860     0.31300
Zr463      Zr  0.92486044  0.94432284  0.23012839     2.17500
O464        O  0.95770643  0.91832973  0.25777802    -0.51000
O465        O  0.95809861  0.97470133  0.21311553    -0.74200
O466        O  0.93307471  0.92506984  0.18175515    -0.81000
O467        O  0.89111519  0.95639474  0.28845547    -0.82800
O468        O  0.93981260  0.90649024  0.13978703    -0.78400
O469        O  0.93025424  0.97014202  0.27610234    -0.90000
O470        O  0.93664484  0.99931220  0.17597084    -0.76000
O471        O  0.91393643  0.95030773  0.17751502    -0.85500
O472        O  0.89447774  0.98178944  0.22722108    -0.85200
O473        O  0.90784711  0.90217875  0.21122546    -0.71900
O474        O  0.88708514  0.93142792  0.25914241    -0.84100
Zr475      Zr  0.82855708  0.93194611  0.18669484     2.26400
Zr476      Zr  0.89442450  0.90938889  0.15726778     2.06300
Zr477      Zr  0.85539103  0.96754014  0.25396268     2.10000
Zr478      Zr  0.88745558  0.98799921  0.17401549     1.78800
O479        O  0.84193801  0.97709388  0.30578821    -0.92900
O480        O  0.89990858  0.99202882  0.12061357    -0.40700
O481        O  0.84760799  0.97439026  0.20067112    -0.77300
O482        O  0.86529173  0.94748973  0.15622615    -0.96000
O483        O  0.85878443  0.89535535  0.18859371    -0.89300
O484        O  0.83875059  0.92511683  0.23914917    -0.92100
C485        C  0.95788239  0.99235553  0.19143633     1.01600
C486        C  0.90938309  0.97345073  0.29112975     1.14600
C487        C  0.94977673  0.91774065  0.16251445     1.05300
O488        O  0.89723435  0.92354239  0.10379813    -0.94300
O489        O  0.85908612  0.88798386  0.12887776    -0.90000
O490        O  0.82010706  0.90631172  0.14247080    -0.83200
C491        C  0.83409689  0.89055609  0.12687735     1.12000
O492        O  0.90493395  0.86601885  0.27056614    -0.96300
Zr493      Zr  0.87097452  0.88977009  0.24108751     1.88900
O494        O  0.80259975  0.89335705  0.20788740    -0.72900
O495        O  0.91004491  0.86294131  0.15554560    -0.52200
O496        O  0.87731602  0.84366465  0.22435113    -0.96900
O497        O  0.86146767  0.88383620  0.29526020    -0.54100
O498        O  0.82918992  0.86904190  0.24028583    -0.73400
C499        C  0.80728852  0.87364848  0.22712899     0.98900
O500        O  0.79828804  0.95368305  0.15018412    -0.62200
O501        O  0.85094865  0.01640246  0.25140113    -0.57100
O502        O  0.79174280  0.95255505  0.21096702    -0.93700
O503        O  0.80686450  0.96768327  0.25636652    -0.92200
O504        O  0.88313861  0.03437617  0.19045964    -0.92500
O505        O  0.85770688  0.01578019  0.14274805    -0.91300
C506        C  0.78827147  0.96280437  0.23709308     1.17800
H507        H  0.90186575  0.99804026  0.23538558     0.33700
H508        H  0.85924894  0.95081452  0.13550945     0.44600
H509        H  0.82381282  0.92031095  0.25143200     0.38100
H510        H  0.92058491  0.88771770  0.21348470     0.34600
H511        H  0.90990006  0.00910300  0.11917546     0.26300
H512        H  0.89475791  0.85186831  0.16153355     0.32300
H513        H  0.86478393  0.84151023  0.20718576     0.38200
H514        H  0.89073809  0.04546702  0.17368950     0.32700
H515        H  0.84459858  0.02062918  0.23041444     0.31500
H516        H  0.83521610  0.95963756  0.31385642     0.33200
H517        H  0.84633620  0.87141812  0.29629448     0.32200
H518        H  0.84137457  0.00510531  0.14167056     0.36200
H519        H  0.79615321  0.97238088  0.15731394     0.28900
H520        H  0.97239076  0.93122352  0.25912464     0.33100
H521        H  0.91641534  0.88048888  0.27825016     0.36000
H522        H  0.83571762  0.02029078  0.26442581     0.28600
H523        H  0.80836951  0.95594147  0.13110666     0.41500
H524        H  0.90273221  0.90710885  0.09307451     0.31500
H525        H  0.91322983  0.97770810  0.11807192     0.39200
H526        H  0.85436098  0.90149469  0.30141785     0.31000
H527        H  0.91221264  0.85950978  0.13353122     0.31100
H528        H  0.96332692  0.90487721  0.24286380     0.31300
Zr529      Zr  0.59373866  0.51327851  0.48295635     2.17500
O530        O  0.56058753  0.49085050  0.00931758    -0.51000
O531        O  0.56226993  0.50772698  0.44067630    -0.74200
O532        O  0.56131957  0.54241246  0.50474608    -0.81000
O533        O  0.63846998  0.45951919  0.51125831    -0.82800
O534        O  0.57513350  0.58597107  0.49980217    -0.78400
O535        O  0.60022909  0.46512397  0.48726086    -0.90000
O536        O  0.58293703  0.51889227  0.39668860    -0.76000
O537        O  0.59889424  0.54979448  0.44756970    -0.85500
O538        O  0.62398652  0.49588739  0.44701529    -0.85200
O539        O  0.61241862  0.54874854  0.51343805    -0.71900
O540        O  0.63386009  0.50309340  0.51065984    -0.84100
Zr541      Zr  0.68690990  0.55779004  0.46865154     2.26400
Zr542      Zr  0.61816895  0.58525190  0.47701929     2.06300
Zr543      Zr  0.66440359  0.48570642  0.47482979     2.10000
Zr544      Zr  0.62855265  0.53226254  0.41150948     1.78800
O545        O  0.68342885  0.44248117  0.49107775    -0.92900
O546        O  0.61404483  0.56892890  0.37733647    -0.40700
O547        O  0.66967680  0.52180952  0.43818194    -0.77300
O548        O  0.64775684  0.56901144  0.43944269    -0.96000
O549        O  0.65706944  0.57395293  0.50484017    -0.89300
O550        O  0.68200538  0.52162292  0.50462050    -0.92100
C551        C  0.56242700  0.51090085  0.41145320     1.01600
C552        C  0.61378974  0.45552371  0.50936855     1.14600
C553        C  0.55922819  0.56773380  0.50917905     1.05300
O554        O  0.59374937  0.61201674  0.43906388    -0.94300
O555        O  0.64803004  0.62270663  0.46629061    -0.90000
O556        O  0.68915085  0.60550128  0.46120640    -0.83200
C557        C  0.67276041  0.62492852  0.46168093     1.12000
O558        O  0.62910082  0.51199377  0.07500997    -0.96300
Zr559      Zr  0.65176225  0.53797225  0.54061929     1.88900
O560        O  0.70780086  0.58045717  0.51215398    -0.72900
O561        O  0.61528376  0.62165004  0.51340982    -0.52200
O562        O  0.63293500  0.56920048  0.57662763    -0.96900
O563        O  0.68227159  0.50880775  0.06565836    -0.54100
O564        O  0.68567923  0.56944771  0.55541210    -0.73400
C565        C  0.70335555  0.58261813  0.54092760     0.98900
O566        O  0.71671079  0.56950486  0.42732652    -0.62200
O567        O  0.66268121  0.45733772  0.43016248    -0.57100
O568        O  0.72624185  0.53064171  0.47078941    -0.93700
O569        O  0.71296584  0.48690249  0.47479629    -0.92200
O570        O  0.63516455  0.49252434  0.38069988    -0.92500
O571        O  0.65651439  0.54174444  0.36787722    -0.91300
C572        C  0.73081942  0.50526400  0.47338160     1.17800
H573        H  0.61701630  0.48029761  0.43689758     0.33700
H574        H  0.65160659  0.58337240  0.42490939     0.44600
H575        H  0.69795583  0.51699270  0.51552424     0.38100
H576        H  0.60150168  0.55357402  0.53025197     0.34600
H577        H  0.60127884  0.56059209  0.36326831     0.26300
H578        H  0.59894912  0.63159102  0.50809782     0.32300
H579        H  0.63554838  0.58597213  0.06255274     0.38200
H580        H  0.62382451  0.49555606  0.36246674     0.32700
H581        H  0.68125965  0.45378596  0.42533256     0.31500
H582        H  0.69166178  0.44591725  0.51118263     0.33200
H583        H  0.69987333  0.51670510  0.06265782     0.32200
H584        H  0.67360497  0.53343366  0.37351027     0.36200
H585        H  0.71930770  0.55248487  0.41630631     0.28900
H586        H  0.54318883  0.49620928  0.00095745     0.33100
H587        H  0.63692889  0.51786760  0.09453421     0.36000
H588        H  0.65593161  0.43975557  0.43781949     0.28600
H589        H  0.70616491  0.58088950  0.41292532     0.41500
H590        H  0.58879872  0.62863779  0.44977296     0.31500
H591        H  0.60329644  0.58066313  0.39026323     0.39200
H592        H  0.68280848  0.49135358  0.05509630     0.31000
H593        H  0.61171316  0.61255260  0.53328754     0.31100
H594        H  0.56150017  0.49853513  0.02997520     0.31300
Zr595      Zr  0.94264079  0.52276145  0.45395686     2.17500
O596        O  0.96332064  0.51240904  0.40610388    -0.51000
O597        O  0.97863611  0.51126519  0.48626618    -0.74200
O598        O  0.97769349  0.55458486  0.44392816    -0.81000
O599        O  0.91007804  0.45918598  0.47531517    -0.82800
O600        O  0.95865110  0.58284054  0.47416312    -0.78400
O601        O  0.94476347  0.47357585  0.45054306    -0.90000
O602        O  0.96370672  0.52884320  0.03399410    -0.76000
O603        O  0.93827860  0.55894437  0.48899519    -0.85500
O604        O  0.91903966  0.50484935  0.49678969    -0.85200
O605        O  0.92057882  0.56042588  0.42772318    -0.71900
O606        O  0.90004227  0.50990279  0.43586688    -0.84100
Zr607      Zr  0.84974108  0.56250430  0.48206597     2.26400
Zr608      Zr  0.91370582  0.59536800  0.46499718     2.06300
Zr609      Zr  0.87555602  0.49239874  0.47905077     2.10000
Zr610      Zr  0.91479834  0.54199532  0.03176786     1.78800
O611        O  0.85929251  0.45086093  0.45698021    -0.92900
O612        O  0.93398104  0.57979273  0.05856073    -0.40700
O613        O  0.87346660  0.52907498  0.51304779    -0.77300
O614        O  0.88730872  0.57708531  0.00709644    -0.96000
O615        O  0.87452353  0.58080443  0.44156537    -0.89300
O616        O  0.85502393  0.52685304  0.44741816    -0.92100
C617        C  0.98091515  0.51827466  0.01565624     1.01600
C618        C  0.92339071  0.46028082  0.45109432     1.14600
C619        C  0.97287810  0.57877380  0.45118353     1.05300
O620        O  0.93031164  0.63812296  0.98413839    -0.94300
O621        O  0.87675269  0.63060520  0.97973331    -0.90000
O622        O  0.83847514  0.60915346  0.99037803    -0.83200
C623        C  0.85229141  0.63030300  0.98708528     1.12000
O624        O  0.90190674  0.51975697  0.36728717    -0.96300
Zr625      Zr  0.88007463  0.54538975  0.40656193     1.88900
O626        O  0.82647040  0.58716857  0.43880466    -0.72900
O627        O  0.91812121  0.62206277  0.41795750    -0.52200
O628        O  0.89840510  0.57333981  0.36557240    -0.96900
O629        O  0.84748463  0.51903068  0.37904306    -0.54100
O630        O  0.84547023  0.57704707  0.39373421    -0.70200
C631        C  0.82882808  0.58999307  0.40938023     0.98900
O632        O  0.81899663  0.57009703  0.02599079    -0.62200
O633        O  0.86876478  0.47489559  0.53077669    -0.57100
O634        O  0.81214414  0.53260882  0.48312823    -0.93700
O635        O  0.82731299  0.48946494  0.48060981    -0.92200
O636        O  0.91533379  0.50344291  0.06732006    -0.92500
O637        O  0.89385085  0.54990620  0.08047380    -0.91300
C638        C  0.80867343  0.50702188  0.48181821     1.17800
H639        H  0.92867809  0.49044400  0.50708153     0.33700
H640        H  0.88344190  0.59061298  0.02193280     0.44600
H641        H  0.83874421  0.52109418  0.43843888     0.38100
H642        H  0.93133667  0.56710831  0.41125194     0.34600
H643        H  0.94871970  0.57178663  0.07056164     0.26300
H644        H  0.90447601  0.61504663  0.40406956     0.32300
H645        H  0.88364795  0.57676564  0.35115126     0.38200
H646        H  0.93053481  0.50663825  0.08097379     0.32700
H647        H  0.85041409  0.47957484  0.53554811     0.31500
H648        H  0.85270707  0.44003333  0.47454293     0.33200
H649        H  0.83022669  0.52645614  0.38471017     0.32200
H650        H  0.87634261  0.55723025  0.07485409     0.36200
H651        H  0.81668307  0.55199013  0.03560998     0.28900
H652        H  0.98231136  0.51130363  0.41082246     0.33100
H653        H  0.89117406  0.52238469  0.34848608     0.36000
H654        H  0.86870320  0.45502680  0.52878058     0.28600
H655        H  0.83028769  0.57969108  0.04069813     0.41500
H656        H  0.93733515  0.63293897  0.00459894     0.31500
H657        H  0.94248316  0.59087094  0.04241555     0.39200
H658        H  0.84813642  0.50082899  0.38885155     0.31000
H659        H  0.91175400  0.64027600  0.42315583     0.31100
H660        H  0.96110378  0.52912407  0.39355764     0.31300
Zr661      Zr  0.76445790  0.71366589  0.38902679     2.17500
O662        O  0.80419669  0.70641532  0.41959181    -0.51000
O663        O  0.73287651  0.68840145  0.42000793    -0.74200
O664        O  0.76059720  0.73495685  0.43684663    -0.81000
O665        O  0.79046412  0.66078540  0.33737561    -0.82800
O666        O  0.73593499  0.77312666  0.43192915    -0.78400
O667        O  0.78493992  0.67012064  0.38759454    -0.90000
O668        O  0.69446620  0.68683120  0.39338469    -0.76000
O669        O  0.72102895  0.73011951  0.38494445    -0.85500
O670        O  0.74495386  0.68916975  0.34864273    -0.85200
O671        O  0.76936709  0.76145693  0.38021158    -0.71900
O672        O  0.79128932  0.72452021  0.34571685    -0.84100
Zr673      Zr  0.72921452  0.76370967  0.29163245     2.26400
Zr674      Zr  0.72514118  0.77760754  0.37676334     2.06300
Zr675      Zr  0.77162118  0.69938118  0.30547521     2.10000
Zr676      Zr  0.70180003  0.70614589  0.34383812     1.78800
O677        O  0.81700237  0.69665968  0.28930288    -0.92900
O678        O  0.65653591  0.71683723  0.35609989    -0.40700
O679        O  0.72731713  0.71562091  0.29966634    -0.77300
O680        O  0.70420831  0.75320570  0.33621169    -0.96000
O681        O  0.74892236  0.78906578  0.33130724    -0.89300
O682        O  0.77323285  0.74738199  0.29520932    -0.92100
C683        C  0.70859323  0.68213403  0.41704854     1.01600
C684        C  0.79257819  0.65480265  0.36640304     1.14600
C685        C  0.74912879  0.75542045  0.44780685     1.05300
O686        O  0.68738326  0.78446267  0.40916903    -0.94300
O687        O  0.69081345  0.80406193  0.35073766    -0.90000
O688        O  0.69409413  0.79605686  0.29976885    -0.83200
C689        C  0.68312973  0.80685120  0.32279249     1.12000
O690        O  0.83348268  0.77062764  0.36348872    -0.96300
Zr691      Zr  0.79263326  0.77259856  0.33430170     1.88900
O692        O  0.74941246  0.80300718  0.26847756    -0.72900
O693        O  0.74234373  0.82247647  0.38631058    -0.52200
O694        O  0.80019973  0.81459566  0.36082376    -0.96900
O695        O  0.83201617  0.76722755  0.30396573    -0.54100
O696        O  0.78881964  0.80674332  0.29255587    -0.73400
C697        C  0.77166718  0.81423242  0.27223524     0.98900
O698        O  0.69486051  0.76019242  0.25287000    -0.62200
O699        O  0.75840099  0.65906524  0.27865280    -0.57100
O700        O  0.74317188  0.74691216  0.24326699    -0.93700
O701        O  0.76627186  0.70758276  0.24976728    -0.92200
O702        O  0.69618601  0.65810439  0.33520172    -0.92500
O703        O  0.67104326  0.70428763  0.30105501    -0.91300
C704        C  0.75598819  0.72678347  0.23307318     1.17800
H705        H  0.74394380  0.67004654  0.35318614     0.33700
H706        H  0.68595414  0.75777194  0.33380895     0.44600
H707        H  0.78285681  0.75129554  0.27680050     0.38100
H708        H  0.77852909  0.76958901  0.39705369     0.34600
H709        H  0.64780356  0.69908680  0.35831161     0.26300
H710        H  0.73397042  0.83434342  0.37052672     0.32300
H711        H  0.81033353  0.82593944  0.34629881     0.38200
H712        H  0.67786320  0.65435997  0.34110830     0.32700
H713        H  0.77379075  0.64687918  0.28009097     0.31500
H714        H  0.81814900  0.70953889  0.27174838     0.33200
H715        H  0.82641401  0.77031150  0.28246388     0.32200
H716        H  0.67815230  0.69027159  0.28764784     0.36200
H717        H  0.67842178  0.75745891  0.26431581     0.28900
H718        H  0.79826711  0.69919138  0.43962219     0.33100
H719        H  0.83137841  0.75498160  0.37771398     0.36000
H720        H  0.74517863  0.65045463  0.29203952     0.28600
H721        H  0.69324066  0.77848009  0.24340654     0.41500
H722        H  0.68020728  0.76611100  0.41265230     0.31500
H723        H  0.65729927  0.72383934  0.37708194     0.39200
H724        H  0.83611543  0.74769662  0.30547939     0.31000
H725        H  0.73413997  0.82777221  0.40567167     0.31100
H726        H  0.81083723  0.72472768  0.42382340     0.31300
Zr727      Zr  0.74643709  0.71192024  0.04453729     2.17500
O728        O  0.71548261  0.69265727  0.51353899    -0.51000
O729        O  0.78265403  0.68929070  0.01815404    -0.74200
O730        O  0.74977112  0.73249038  0.49406685    -0.81000
O731        O  0.73594553  0.65612511  0.10257073    -0.82800
O732        O  0.75499091  0.77790387  0.49543152    -0.78400
O733        O  0.73534402  0.66537391  0.05140409    -0.90000
O734        O  0.82069562  0.69983216  0.04246085    -0.76000
O735        O  0.78224732  0.74198156  0.04367934    -0.85500
O736        O  0.77467456  0.69630866  0.08464832    -0.85200
O737        O  0.72629201  0.75519987  0.05225572    -0.71900
O738        O  0.72032850  0.71449108  0.09002238    -0.84100
Zr739      Zr  0.76844476  0.77269950  0.13790172     2.26400
Zr740      Zr  0.76270703  0.78516520  0.05107543     2.06300
Zr741      Zr  0.74897279  0.69790837  0.12973968     2.10000
Zr742      Zr  0.81015534  0.72715683  0.08480863     1.78800
O743        O  0.71018832  0.67961001  0.15445552    -0.92900
O744        O  0.84448347  0.75083851  0.05685983    -0.40700
O745        O  0.78588578  0.72816809  0.13114227    -0.77300
O746        O  0.79271485  0.77088543  0.09137444    -0.96000
O747        O  0.73971876  0.78885917  0.09832037    -0.89300
O748        O  0.73210489  0.74254025  0.13869594    -0.92100
C749        C  0.80776025  0.68813229  0.02163404     1.01600
C750        C  0.73266941  0.64938852  0.07436720     1.14600
C751        C  0.75088717  0.75591842  0.48121157     1.05300
O752        O  0.79687472  0.80451980  0.01915269    -0.94300
O753        O  0.78247345  0.82459443  0.07232955    -0.90000
O754        O  0.78734263  0.81633387  0.12361434    -0.83200
C755        C  0.79038264  0.83068910  0.09905971     1.12000
O756        O  0.66449697  0.74303759  0.07376585    -0.96300
Zr757      Zr  0.70351157  0.75929573  0.10003276     1.88900
O758        O  0.73775915  0.80333059  0.16096858    -0.72900
O759        O  0.73056275  0.82012556  0.03815670    -0.52200
O760        O  0.68156162  0.79628080  0.07238387    -0.96900
O761        O  0.67075284  0.74143058  0.13521069    -0.54100
O762        O  0.69839367  0.79523306  0.13840677    -0.73400
C763        C  0.71324908  0.80798194  0.15730881     0.98900
O764        O  0.80392609  0.78372932  0.17313395    -0.62200
O765        O  0.77837362  0.66356781  0.15153003    -0.57100
O766        O  0.76441824  0.75094920  0.18799648    -0.93700
O767        O  0.75462586  0.70616838  0.18440703    -0.92200
O768        O  0.83288990  0.68808119  0.10715853    -0.92500
O769        O  0.84674534  0.74135507  0.11663800    -0.91300
C770        C  0.75923954  0.72752795  0.19974782     1.17800
H771        H  0.78096123  0.67822558  0.08127352     0.33700
H772        H  0.80792038  0.78238443  0.09184861     0.44600
H773        H  0.72296806  0.74304058  0.15785737     0.38100
H774        H  0.71429896  0.75944944  0.03561950     0.34600
H775        H  0.85885594  0.73748549  0.05528080     0.26300
H776        H  0.73895310  0.83118846  0.02191448     0.32300
H777        H  0.67031747  0.80492357  0.08766245     0.38200
H778        H  0.82699879  0.68716152  0.12861746     0.32700
H779        H  0.76768189  0.65362167  0.16676719     0.31500
H780        H  0.71587908  0.66187678  0.16310536     0.33200
H781        H  0.67610105  0.74761428  0.15567483     0.32200
H782        H  0.83851541  0.74833723  0.13523453     0.36200
H783        H  0.81906572  0.78830062  0.16008535     0.28900
H784        H  0.72323112  0.68899678  0.49342616     0.33100
H785        H  0.64984505  0.75429915  0.08096962     0.36000
H786        H  0.78103022  0.65056711  0.13500308     0.28600
H787        H  0.79867829  0.80106939  0.18213350     0.41500
H788        H  0.81322338  0.79580250  0.02675325     0.31500
H789        H  0.83753236  0.75293210  0.03575615     0.39200
H790        H  0.67391727  0.72169859  0.13597170     0.31000
H791        H  0.71625187  0.81058703  0.02751114     0.31100
H792        H  0.70314717  0.70784509  0.50964687     0.31300
Zr793      Zr  0.53766225  0.31161558  0.11681850     2.17500
O794        O  0.55233025  0.27436627  0.15033621    -0.51000
O795        O  0.57945874  0.29601749  0.09324446    -0.74200
O796        O  0.51451054  0.26984480  0.10772137    -0.81000
O797        O  0.58000433  0.35484975  0.15908796    -0.82800
O798        O  0.49102880  0.27835281  0.06442760    -0.78400
O799        O  0.54847416  0.32492536  0.16743149    -0.90000
O800        O  0.57170936  0.30593511  0.04390596    -0.76000
O801        O  0.52795078  0.31528347  0.06367488    -0.85500
O802        O  0.56704982  0.34620741  0.09945328    -0.85200
O803        O  0.49161924  0.32467627  0.11473038    -0.71900
O804        O  0.52563830  0.35161062  0.14493687    -0.84100
Zr805      Zr  0.50094001  0.40406975  0.06910975     2.26400
Zr806      Zr  0.48267361  0.32783042  0.06103207     2.06300
Zr807      Zr  0.55479338  0.38575621  0.12677723     2.10000
Zr808      Zr  0.55556074  0.35105282  0.04662822     1.78800
O809        O  0.54536086  0.41388036  0.17038470    -0.92900
O810        O  0.54771784  0.33881612  0.99357272    -0.40700
O811        O  0.54041186  0.38389143  0.07777081    -0.77300
O812        O  0.51119170  0.36364964  0.04105630    -0.96000
O813        O  0.47151288  0.36963936  0.08623675    -0.89300
O814        O  0.51082409  0.40170770  0.12243801    -0.92100
C815        C  0.58596207  0.29546643  0.06484211     1.01600
C816        C  0.57157033  0.33323194  0.17178147     1.14600
C817        C  0.50180418  0.26201543  0.08425487     1.05300
O818        O  0.46452764  0.30236818  0.01890504    -0.94300
O819        O  0.46671761  0.35086137  0.01525616    -0.90000
O820        O  0.46277556  0.38776514  0.04162103    -0.83200
C821        C  0.46428413  0.37635993  0.01600412     1.12000
O822        O  0.46250059  0.33683570  0.17753420    -0.96300
Zr823      Zr  0.48094363  0.36765329  0.13941224     1.88900
O824        O  0.47656996  0.43722689  0.09877013    -0.72900
O825        O  0.43868370  0.32036777  0.08033634    -0.52200
O826        O  0.43377608  0.36252333  0.13299871    -0.96900
O827        O  0.48894088  0.37903827  0.19251607    -0.54100
O828        O  0.46310551  0.41514528  0.14175287    -0.73400
C829        C  0.46457158  0.43674529  0.12447304     0.98900
O830        O  0.49353107  0.44119545  0.03283030    -0.62200
O831        O  0.59645620  0.40721968  0.13904922    -0.57100
O832        O  0.54079695  0.42793025  0.05480776    -0.93700
O833        O  0.57215208  0.41899983  0.09117957    -0.92200
O834        O  0.60224213  0.36087580  0.04843239    -0.92500
O835        O  0.56931499  0.38416995  0.00816639    -0.91300
C836        C  0.56412153  0.42971686  0.06590977     1.17800
H837        H  0.58546227  0.34244960  0.10274709     0.33700
H838        H  0.51053222  0.36688281  0.01929942     0.44600
H839        H  0.51007363  0.41866150  0.13271888     0.38100
H840        H  0.48116061  0.31041636  0.12368789     0.34600
H841        H  0.57029461  0.32928521  0.49040012     0.26300
H842        H  0.42698640  0.32759649  0.06390674     0.32300
H843        H  0.42595296  0.37798678  0.14360566     0.38200
H844        H  0.60382295  0.37632235  0.06227445     0.32700
H845        H  0.59783232  0.40646370  0.16162183     0.31500
H846        H  0.55131731  0.43217088  0.16409908     0.33200
H847        H  0.49225422  0.39872507  0.19200362     0.32200
H848        H  0.55731343  0.39572136  0.50747903     0.36200
H849        H  0.50413963  0.43681146  0.01482157     0.28900
H850        H  0.55761769  0.25964947  0.13674025     0.33100
H851        H  0.47600041  0.32260938  0.18064458     0.36000
H852        H  0.61001562  0.39443396  0.13219237     0.28600
H853        H  0.47517754  0.43873433  0.02609641     0.41500
H854        H  0.47980854  0.29789456  0.00619216     0.31500
H855        H  0.53351514  0.32526422  0.99447888     0.39200
H856        H  0.50617124  0.37084852  0.19774100     0.31000
H857        H  0.43631521  0.30054910  0.07978184     0.31100
H858        H  0.53649422  0.26764565  0.16087588     0.31300
Zr859      Zr  0.55881319  0.14056017  0.03445596     2.17500
O860        O  0.56495466  0.17923309  0.49407035    -0.51000
O861        O  0.59567879  0.16586377  0.05798470    -0.74200
O862        O  0.53002006  0.17732595  0.04970242    -0.81000
O863        O  0.60829235  0.10490437  0.99048808    -0.82800
O864        O  0.50614358  0.16205801  0.08996555    -0.78400
O865        O  0.57548110  0.13450454  0.98403427    -0.90000
O866        O  0.61154124  0.14141597  0.09862796    -0.76000
O867        O  0.55471592  0.13170729  0.08757420    -0.85500
O868        O  0.59326410  0.10935453  0.04692766    -0.85200
O869        O  0.51536388  0.12172511  0.03937710    -0.71900
O870        O  0.55037836  0.10092385  0.00420759    -0.84100
Zr871      Zr  0.53820267  0.04138465  0.07765271     2.26400
Zr872      Zr  0.51202178  0.11253024  0.09285865     2.06300
Zr873      Zr  0.58480678  0.06948557  0.01725698     2.10000
Zr874      Zr  0.58847160  0.10007419  0.10018441     1.78800
O875        O  0.57152418  0.04498063  0.46577701    -0.92900
O876        O  0.58276804  0.11868635  0.15072993    -0.40700
O877        O  0.57940079  0.06240646  0.07054525    -0.77300
O878        O  0.54648171  0.08130161  0.10735779    -0.96000
O879        O  0.50337829  0.07202249  0.06496438    -0.89300
O880        O  0.54226834  0.04930059  0.02414110    -0.92100
C881        C  0.61117812  0.16226517  0.08126455     1.01600
C882        C  0.59903912  0.12724618  0.98010801     1.14600
C883        C  0.51399846  0.18101716  0.07161836     1.05300
O884        O  0.50478956  0.13171044  0.14272935    -0.94300
O885        O  0.49920905  0.08147061  0.13346671    -0.90000
O886        O  0.51896468  0.04054928  0.12749979    -0.83200
C887        C  0.50533385  0.05736906  0.14227802     1.12000
O888        O  0.49158728  0.11066259  0.46952219    -0.96300
Zr889      Zr  0.50787152  0.08039278  0.01170005     1.88900
O890        O  0.50305773  0.01426089  0.05706803    -0.72900
O891        O  0.46544172  0.11566662  0.08069645    -0.52200
O892        O  0.46293881  0.09204166  0.51864249    -0.96900
O893        O  0.50782787  0.06146413  0.45868030    -0.54100
O894        O  0.48505520  0.03624411  0.01602299    -0.73400
C895        C  0.48680080  0.01576375  0.03470936     0.98900
O896        O  0.54404934  0.99804132  0.10428524    -0.62200
O897        O  0.62447199  0.05026715  0.99589472    -0.57100
O898        O  0.57292994  0.01089090  0.06138588    -0.93700
O899        O  0.60764792  0.03575834  0.04950556    -0.92200
O900        O  0.63399806  0.08598541  0.09582301    -0.92500
O901        O  0.60375030  0.06879767  0.14037702    -0.91300
C902        C  0.59722618  0.01616038  0.06451644     1.17800
H903        H  0.61043602  0.11681119  0.04328751     0.33700
H904        H  0.54717156  0.07807640  0.12910494     0.44600
H905        H  0.54044685  0.03257563  0.01345056     0.38100
H906        H  0.50232069  0.13493220  0.03301453     0.34600
H907        H  0.60075746  0.12247260  0.15809912     0.26300
H908        H  0.45732869  0.10095240  0.09295855     0.32300
H909        H  0.45577691  0.07658083  0.53055788     0.38200
H910        H  0.63599843  0.08113213  0.07417043     0.32700
H911        H  0.62414195  0.05558145  0.97396869     0.31500
H912        H  0.57673550  0.02661025  0.97574639     0.33200
H913        H  0.48935410  0.05619527  0.45523085     0.32200
H914        H  0.58777345  0.06222664  0.15073611     0.36200
H915        H  0.55455082  0.00231701  0.12256346     0.28900
H916        H  0.56835636  0.19488119  0.50719764     0.33100
H917        H  0.50738207  0.11843067  0.45982197     0.36000
H918        H  0.63900140  0.06086064  0.00472053     0.28600
H919        H  0.52663105  0.99269193  0.11206637     0.41500
H920        H  0.52204448  0.13910750  0.14869989     0.31500
H921        H  0.57487460  0.13674667  0.14691828     0.39200
H922        H  0.51735683  0.04408659  0.46083505     0.31000
H923        H  0.45953220  0.13244917  0.09040789     0.31100
H924        H  0.54721960  0.18242836  0.48533994     0.31300
Zr925      Zr  0.90219488  0.17649962  0.30576052     2.17500
O926        O  0.90671026  0.20047962  0.35352193    -0.51000
O927        O  0.87905978  0.20922260  0.27226876    -0.74200
O928        O  0.92976235  0.21471866  0.29930667    -0.81000
O929        O  0.84249638  0.14120117  0.33500893    -0.82800
O930        O  0.96314571  0.20297329  0.26835279    -0.78400
O931        O  0.86168321  0.18255779  0.33185200    -0.90000
O932        O  0.87035907  0.18899665  0.22713573    -0.76000
O933        O  0.91461844  0.17247157  0.25421932    -0.85500
O934        O  0.87051146  0.14853922  0.28248237    -0.85200
O935        O  0.94552484  0.15738152  0.30963304    -0.71900
O936        O  0.90577935  0.13508021  0.33530417    -0.84100
Zr937      Zr  0.92899333  0.08309599  0.25964724     2.26400
Zr938      Zr  0.95766180  0.15463720  0.25753330     2.06300
Zr939      Zr  0.87249789  0.10813709  0.31251813     2.10000
Zr940      Zr  0.88372648  0.14281894  0.23147009     1.78800
O941        O  0.86560731  0.09617338  0.36602688    -0.92900
O942        O  0.89645787  0.15742311  0.18026050    -0.40700
O943        O  0.88499164  0.10125306  0.25985635    -0.77300
O944        O  0.92693878  0.12558013  0.23193983    -0.96000
O945        O  0.96129923  0.11092605  0.28267604    -0.89300
O946        O  0.91604583  0.08771667  0.31171088    -0.92100
C947        C  0.86994992  0.20910096  0.24476889     1.01600
C948        C  0.84285718  0.16690426  0.33910953     1.14600
C949        C  0.95047874  0.21997111  0.28447980     1.05300
O950        O  0.96881114  0.18113607  0.21205990    -0.94300
O951        O  0.97930052  0.12943908  0.21944095    -0.90000
O952        O  0.96081945  0.08762999  0.21770019    -0.83200
C953        C  0.97668874  0.10610044  0.20813067     1.12000
O954        O  0.96447442  0.13729370  0.37895122    -0.96300
Zr955      Zr  0.94874910  0.11321957  0.33448495     1.88900
O956        O  0.95324777  0.04817935  0.28731864    -0.72900
O957        O  0.00249756  0.15614895  0.27685198    -0.52200
O958        O  0.99616084  0.11816249  0.33355022    -0.96900
O959        O  0.93453271  0.09460942  0.38351405    -0.54100
O960        O  0.96389955  0.06458374  0.33375647    -0.73400
C961        C  0.96326740  0.04534250  0.31404440     0.98900
O962        O  0.92874701  0.04457672  0.22615358    -0.62200
O963        O  0.82901001  0.09605569  0.29397734    -0.57100
O964        O  0.88703702  0.06123520  0.26760735    -0.93700
O965        O  0.87009084  0.05986714  0.31372379    -0.92200
O966        O  0.83619849  0.14233217  0.22590501    -0.92500
O967        O  0.87052074  0.11000918  0.19372404    -0.91300
C968        C  0.88177085  0.04817606  0.29226889     1.17800
H969        H  0.85326632  0.15656506  0.28188723     0.33700
H970        H  0.93062680  0.12409701  0.21050903     0.44600
H971        H  0.91622113  0.07078766  0.32297189     0.38100
H972        H  0.95704717  0.16972135  0.31990051     0.34600
H973        H  0.87979461  0.16254753  0.16987606     0.26300
H974        H  0.01264010  0.16412156  0.25976422     0.32300
H975        H  0.00286458  0.10392527  0.34783555     0.38200
H976        H  0.83272504  0.15005446  0.20519973     0.32700
H977        H  0.83212504  0.08531062  0.27557143     0.31500
H978        H  0.84795043  0.08798145  0.36649489     0.33200
H979        H  0.95027751  0.08563211  0.39244294     0.32200
H980        H  0.88424454  0.09584845  0.19502819     0.36200
H981        H  0.92916374  0.05222617  0.20510910     0.28900
H982        H  0.90195134  0.21948528  0.34855200     0.33100
H983        H  0.96748985  0.15605413  0.37158923     0.36000
H984        H  0.82225740  0.08291544  0.30931715     0.28600
H985        H  0.94615194  0.03603734  0.22924380     0.41500
H986        H  0.95260376  0.18128123  0.19946156     0.31500
H987        H  0.90563108  0.17477120  0.18313911     0.39200
H988        H  0.92271058  0.07955459  0.37830999     0.31000
H989        H  0.00238612  0.17030754  0.29244379     0.31100
H990        H  0.92578270  0.20082488  0.35786337     0.31300
Zr991      Zr  0.89323052  0.33609879  0.31810728     2.17500
O992        O  0.87821229  0.30631349  0.27792530    -0.51000
O993        O  0.87254017  0.30928209  0.36039573    -0.74200
O994        O  0.92376469  0.29928293  0.30831116    -0.81000
O995        O  0.83044283  0.37604540  0.31550805    -0.82800
O996        O  0.96564904  0.31488182  0.30876539    -0.78400
O997        O  0.84812099  0.33553409  0.30325035    -0.90000
O998        O  0.88160385  0.32916426  0.40551243    -0.76000
O999        O  0.92713333  0.33848729  0.35525478    -0.85500
O1000       O  0.87521137  0.36445152  0.35570960    -0.85200
O1001       O  0.92925973  0.35699302  0.29104948    -0.71900
O1002       O  0.88349108  0.37861445  0.29182680    -0.84100
Zr1003     Zr  0.93779840  0.42991382  0.34307473     2.26400
Zr1004     Zr  0.96309927  0.35986689  0.32921574     2.06300
Zr1005     Zr  0.86584419  0.40665247  0.33039573     2.10000
Zr1006     Zr  0.90930937  0.36663538  0.39317979     1.78800
O1007       O  0.84864573  0.43711779  0.29061159    -0.92900
O1008       O  0.93753399  0.33484901  0.42148554    -0.40700
O1009       O  0.90114808  0.40812520  0.36716820    -0.77300
O1010       O  0.94584333  0.38704783  0.36896644    -0.96000
O1011       O  0.95516970  0.40289913  0.30408960    -0.89300
O1012       O  0.90289416  0.42790317  0.30600640    -0.92100
C1013       C  0.87004092  0.31148719  0.38964656     1.01600
C1014       C  0.82892182  0.35182064  0.30572856     1.14600
C1015       C  0.94852433  0.29652367  0.30430273     1.05300
O1016       O  0.98899198  0.32939752  0.36198060    -0.94300
O1017       O  0.99734342  0.38345812  0.35630355    -0.90000
O1018       O  0.98149612  0.42536627  0.36618623    -0.83200
C1019       C  0.99887549  0.40659421  0.36861312     1.12000
O1020       O  0.91312146  0.37511043  0.22136216    -0.96300
Zr1021     Zr  0.92036913  0.40081902  0.26750867     1.88900
O1022       O  0.95326067  0.46084152  0.30371276    -0.72900
O1023       O  0.99794459  0.36377664  0.29177956    -0.52200
O1024       O  0.95980525  0.39903407  0.23680403    -0.96900
O1025       O  0.88644688  0.41968054  0.23361709    -0.54100
O1026       O  0.93359224  0.44868520  0.25951871    -0.73400
C1027       C  0.94616702  0.46567498  0.27603929     0.98900
O1028       O  0.95042125  0.46808187  0.37371255    -0.62200
O1029       O  0.82566298  0.41848263  0.35662458    -0.57100
O1030       O  0.90041190  0.45964818  0.34825147    -0.93700
O1031       O  0.86506936  0.44197414  0.36798018    -0.92200
O1032       O  0.87705394  0.38483982  0.42776372    -0.92500
O1033       O  0.92589593  0.38866562  0.43870736    -0.91300
C1034       C  0.88524689  0.45672587  0.37068823     1.17800
H1035       H  0.85895847  0.35792117  0.36409163     0.33700
H1036       H  0.95752829  0.38819976  0.38624115     0.44600
H1037       H  0.89798778  0.44530425  0.29730644     0.38100
H1038       H  0.93483430  0.34528377  0.27501780     0.34600
H1039       H  0.93453900  0.31716010  0.41197915     0.26300
H1040       H  0.00476290  0.38235026  0.29382787     0.32300
H1041       H  0.96685381  0.38059369  0.24048065     0.38200
H1042       H  0.86559371  0.39644220  0.41461145     0.32700
H1043       H  0.81238923  0.42150802  0.34025598     0.31500
H1044       H  0.83542811  0.42626413  0.27970281     0.33200
H1045       H  0.88399987  0.43851506  0.24014214     0.32200
H1046       H  0.94522281  0.38749347  0.43777604     0.36200
H1047       H  0.95768144  0.46032324  0.39302618     0.28900
H1048       H  0.87853572  0.28779609  0.28694693     0.33100
H1049       H  0.91789978  0.38736230  0.20413321     0.36000
H1050       H  0.82014440  0.40167626  0.36737263     0.28600
H1051       H  0.96565370  0.47606858  0.36303699     0.41500
H1052       H  0.00676430  0.32960269  0.35314776     0.31500
H1053       H  0.95556370  0.33984890  0.41554336     0.39200
H1054       H  0.87015847  0.41033858  0.23976648     0.31000
H1055       H  0.01217777  0.35202237  0.30003539     0.31100
H1056       H  0.89217753  0.30656615  0.26240090     0.31300
Zr1057     Zr  0.69542486  0.22581996  0.99758463     2.17500
O1058       O  0.69546950  0.18738886  0.03335320    -0.51000
O1059       O  0.65985737  0.24878422  0.02157534    -0.74200
O1060       O  0.71123675  0.24155857  0.04622387    -0.81000
O1061       O  0.65073506  0.19675274  0.43188082    -0.82800
O1062       O  0.75099055  0.26204232  0.04135389    -0.78400
O1063       O  0.65945023  0.19382002  0.48307040    -0.90000
O1064       O  0.65983690  0.29203162  0.50028985    -0.76000
O1065       O  0.71362880  0.26923095  0.49552962    -0.85500
O1066       O  0.67167900  0.25033596  0.45590324    -0.85200
O1067       O  0.73952207  0.21887464  0.49132006    -0.71900
O1068       O  0.70100003  0.20153706  0.45153930    -0.84100
Zr1069     Zr  0.74651148  0.26044410  0.40239103     2.26400
Zr1070     Zr  0.75962696  0.26289978  0.48695466     2.06300
Zr1071     Zr  0.68161655  0.22726746  0.40975490     2.10000
Zr1072     Zr  0.69127309  0.29355995  0.45656404     1.78800
O1073       O  0.67122299  0.18849900  0.37867745    -0.92900
O1074       O  0.70292460  0.33266063  0.48653161    -0.40700
O1075       O  0.70095082  0.27090163  0.40942872    -0.77300
O1076       O  0.73775139  0.28747073  0.44638106    -0.96000
O1077       O  0.76717514  0.23640555  0.44341373    -0.89300
O1078       O  0.72678190  0.21737775  0.40390847    -0.92100
C1079       C  0.65191057  0.27324968  0.01996037     1.01600
C1080       C  0.64726835  0.18688219  0.45864143     1.14600
C1081       C  0.73113547  0.25404351  0.05704906     1.05300
O1082       O  0.77153266  0.30831234  0.50199680    -0.94300
O1083       O  0.79998575  0.27553479  0.45799511    -0.90000
O1084       O  0.78993384  0.27714247  0.40725539    -0.83200
C1085       C  0.80589467  0.27952943  0.42950837     1.12000
O1086       O  0.74157718  0.15423758  0.47999007    -0.96300
Zr1087     Zr  0.74655415  0.19362112  0.44629487     1.88900
O1088       O  0.77607701  0.22866883  0.37736867    -0.72900
O1089       O  0.79630417  0.23781835  0.01632716    -0.52200
O1090       O  0.78707954  0.17990410  0.47215376    -0.96900
O1091       O  0.73288938  0.15378977  0.41872422    -0.54100
O1092       O  0.77785100  0.19001357  0.40641233    -0.73400
C1093       C  0.78468018  0.20466923  0.38361094     0.98900
O1094       O  0.75294020  0.30146161  0.37153086    -0.62200
O1095       O  0.64163740  0.25076564  0.39367409    -0.57100
O1096       O  0.72891363  0.25510604  0.35217622    -0.93700
O1097       O  0.68892766  0.23546464  0.35501284    -0.92200
O1098       O  0.64959631  0.30589893  0.43244497    -0.92500
O1099       O  0.69436090  0.33568765  0.42702790    -0.91300
C1100       C  0.70822809  0.24548267  0.33999803     1.17800
H1101       H  0.65297228  0.25129074  0.45883699     0.33700
H1102       H  0.74584473  0.30495676  0.44367392     0.44600
H1103       H  0.72936243  0.20776749  0.38524826     0.38100
H1104       H  0.74843491  0.20752469  0.00785566     0.34600
H1105       H  0.68616134  0.34233173  0.48945846     0.26300
H1106       H  0.80987308  0.23346507  0.00120642     0.32300
H1107       H  0.79371954  0.16456568  0.46032336     0.38200
H1108       H  0.65197361  0.30225151  0.41052059     0.32700
H1109       H  0.63851686  0.24515758  0.37239509     0.31500
H1110       H  0.65457886  0.19337177  0.36809416     0.33200
H1111       H  0.73558840  0.15843545  0.39688487     0.32200
H1112       H  0.69605454  0.33006201  0.40558977     0.36200
H1113       H  0.73507400  0.30721274  0.36516523     0.28900
H1114       H  0.68264187  0.19226525  0.04911638     0.33100
H1115       H  0.72524822  0.15771878  0.49125365     0.36000
H1116       H  0.62752504  0.24188901  0.40548777     0.28600
H1117       H  0.75851912  0.31530306  0.38617877     0.41500
H1118       H  0.77976925  0.30479954  0.02371894     0.31500
H1119       H  0.70744302  0.32511232  0.50703782     0.39200
H1120       H  0.71361599  0.15329736  0.42093547     0.31000
H1121       H  0.80437396  0.25192759  0.02897830     0.31100
H1122       H  0.71267752  0.18792766  0.04395017     0.31300
Zr1123     Zr  0.68717984  0.26751108  0.15083785     2.17500
O1124       O  0.67135255  0.30445864  0.11781291    -0.51000
O1125       O  0.66248417  0.23372587  0.12497162    -0.74200
O1126       O  0.70727665  0.26237168  0.10115475    -0.81000
O1127       O  0.63800591  0.27586443  0.21632158    -0.82800
O1128       O  0.75167570  0.25877873  0.10535177    -0.78400
O1129       O  0.64381814  0.28268685  0.16509030    -0.90000
O1130       O  0.67837549  0.19372623  0.14397483    -0.76000
O1131       O  0.72132336  0.23501283  0.14922923    -0.85500
O1132       O  0.67629234  0.23434548  0.18905511    -0.85200
O1133       O  0.72701773  0.29188137  0.15904793    -0.71900
O1134       O  0.68564810  0.28994975  0.19835471    -0.84100
Zr1135     Zr  0.74947686  0.24938905  0.24437979     2.26400
Zr1136     Zr  0.76126158  0.25833167  0.15989007     2.06300
Zr1137     Zr  0.67711119  0.25625924  0.23726068     2.10000
Zr1138     Zr  0.71015010  0.20173948  0.18613615     1.78800
O1139       O  0.65502566  0.28660425  0.27167301    -0.92900
O1140       O  0.73410731  0.17355490  0.15101527    -0.40700
O1141       O  0.71085026  0.22311392  0.23523451    -0.77300
O1142       O  0.75079905  0.22454879  0.19782051    -0.96000
O1143       O  0.75945168  0.28239709  0.20618121    -0.89300
O1144       O  0.71565063  0.28186278  0.24606376    -0.92100
C1145       C  0.66349355  0.20798736  0.12572832     1.01600
C1146       C  0.63074204  0.28432109  0.18989302     1.14600
C1147       C  0.73021211  0.25924106  0.08984283     1.05300
O1148       O  0.78829657  0.22273044  0.13896566    -0.94300
O1149       O  0.80361597  0.25399439  0.18649444    -0.90000
O1150       O  0.79544090  0.24545941  0.23677139    -0.83200
C1151       C  0.81077414  0.24874127  0.21424962     1.12000
O1152       O  0.70027517  0.35014409  0.18004337    -0.96300
Zr1153     Zr  0.72475528  0.31442605  0.20679870     1.88900
O1154       O  0.76936682  0.28790845  0.26953664    -0.72900
O1155       O  0.78786550  0.29463690  0.13824580    -0.52200
O1156       O  0.75302161  0.34734862  0.18157200    -0.96900
O1157       O  0.69964782  0.34149765  0.24198735    -0.54100
O1158       O  0.75651641  0.32671215  0.24481278    -0.73400
C1159       C  0.76961777  0.31366921  0.26530964     0.98900
O1160       O  0.76892979  0.21274860  0.27528961    -0.62200
O1161       O  0.64665358  0.21962066  0.24823734    -0.57100
O1162       O  0.73094129  0.24698923  0.29453557    -0.93700
O1163       O  0.68657279  0.24693737  0.29132289    -0.92200
O1164       O  0.67902201  0.17084541  0.20998823    -0.92500
O1165       O  0.73082011  0.16262988  0.21112505    -0.91300
C1166       C  0.70819285  0.24609023  0.30651167     1.17800
H1167       H  0.65920143  0.22668200  0.18545575     0.33700
H1168       H  0.76476022  0.21135946  0.19919824     0.44600
H1169       H  0.71501815  0.29040933  0.26562648     0.38100
H1170       H  0.72959076  0.30483402  0.14254753     0.34600
H1171       H  0.73028999  0.18146928  0.13048333     0.26300
H1172       H  0.79523278  0.28720351  0.11937077     0.32300
H1173       H  0.77064928  0.33896340  0.18231372     0.38200
H1174       H  0.66170291  0.17958192  0.20696779     0.32700
H1175       H  0.64300702  0.22090259  0.27031094     0.31500
H1176       H  0.64067856  0.27574396  0.28068058     0.33200
H1177       H  0.70891230  0.33976649  0.26190265     0.32200
H1178       H  0.73267380  0.16767409  0.23278417     0.36200
H1179       H  0.75392631  0.20212071  0.28309023     0.28900
H1180       H  0.66513063  0.29572731  0.09897880     0.33100
H1181       H  0.69579044  0.34254314  0.15996036     0.36000
H1182       H  0.63004959  0.22521502  0.23803881     0.28600
H1183       H  0.77723600  0.20069606  0.26045216     0.41500
H1184       H  0.77690727  0.21372155  0.12390488     0.31500
H1185       H  0.75277947  0.17778333  0.15479669     0.39200
H1186       H  0.68315187  0.33136698  0.24496834     0.31000
H1187       H  0.77526839  0.30863949  0.13097289     0.31100
H1188       H  0.68728200  0.31440417  0.11156849     0.31300
Zr1189     Zr  0.40386450  0.00914069  0.22311058     2.17500
O1190       O  0.41406243  0.98467748  0.17710388    -0.51000
O1191       O  0.44152929  0.99251134  0.25329037    -0.74200
O1192       O  0.44504033  0.02373882  0.20370610    -0.81000
O1193       O  0.33974657  0.97411927  0.22289114    -0.82800
O1194       O  0.45015671  0.06776608  0.21665473    -0.78400
O1195       O  0.38319534  0.96497735  0.22108912    -0.90000
O1196       O  0.44335993  0.02165683  0.29240728    -0.76000
O1197       O  0.41861220  0.04561105  0.25262647    -0.85500
O1198       O  0.38137551  0.00413995  0.27015359    -0.85200
O1199       O  0.39477061  0.04988798  0.19364124    -0.71900
O1200       O  0.35855688  0.01428801  0.21034995    -0.84100
Zr1201     Zr  0.33799655  0.08567334  0.25680541     2.26400
Zr1202     Zr  0.40731591  0.08630328  0.22601324     2.06300
Zr1203     Zr  0.33556344  0.01062175  0.25764981     2.10000
Zr1204     Zr  0.39755912  0.04069317  0.29924521     1.78800
O1205       O  0.30182305  0.97585818  0.25914924    -0.92900
O1206       O  0.42676361  0.07222872  0.32439578    -0.40700
O1207       O  0.35069210  0.04679314  0.28798023    -0.77300
O1208       O  0.38381129  0.08215623  0.27306814    -0.96000
O1209       O  0.36266733  0.08895887  0.21145281    -0.89300
O1210       O  0.32479333  0.04936182  0.22597054    -0.92100
C1211       C  0.45426745  0.00400591  0.27488253     1.01600
C1212       C  0.35921856  0.96037336  0.21386006     1.14600
C1213       C  0.45829000  0.04534654  0.20624080     1.05300
O1214       O  0.43493544  0.11623651  0.25562911    -0.94300
O1215       O  0.38719780  0.13089228  0.22106189    -0.90000
O1216       O  0.35679983  0.12993991  0.25836228    -0.83200
C1217       C  0.36955001  0.14201371  0.23718710     1.12000
O1218       O  0.35099151  0.01920651  0.14142698    -0.96300
Zr1219     Zr  0.34928860  0.05375063  0.18009154     1.88900
O1220       O  0.31985321  0.11600329  0.21577790    -0.72900
O1221       O  0.42429273  0.10461594  0.17808093    -0.52200
O1222       O  0.37119320  0.06934785  0.13382586    -0.96900
O1223       O  0.30519389  0.04538862  0.16049842    -0.54100
O1224       O  0.33152537  0.09886175  0.17011009    -0.73400
C1225       C  0.32177128  0.11755168  0.18637080     0.98900
O1226       O  0.31909604  0.10686079  0.30117179    -0.62200
O1227       O  0.34207550  0.99060375  0.30854407    -0.57100
O1228       O  0.29174554  0.07307856  0.26572269    -0.93700
O1229       O  0.29106325  0.02718377  0.26699264    -0.92200
O1230       O  0.39522561  0.00213297  0.33461973    -0.92500
O1231       O  0.38430888  0.05427142  0.34991500    -0.91300
C1232       C  0.27960082  0.05028268  0.26798899     1.17800
H1233       H  0.38514688  0.98668948  0.27948778     0.33700
H1234       H  0.38819302  0.09711060  0.28592315     0.44600
H1235       H  0.30663371  0.05005439  0.21983281     0.38100
H1236       H  0.40523836  0.05022509  0.17538654     0.34600
H1237       H  0.43755321  0.06083367  0.33853862     0.26300
H1238       H  0.41002545  0.11613224  0.16948010     0.32300
H1239       H  0.37866415  0.08708896  0.13906564     0.38200
H1240       H  0.41153406  0.00310950  0.34696396     0.32700
H1241       H  0.32555606  0.99409548  0.31942766     0.31500
H1242       H  0.29934316  0.97092243  0.28093496     0.33200
H1243       H  0.30627757  0.04934359  0.13828818     0.32200
H1244       H  0.37508748  0.07170750  0.34640691     0.36200
H1245       H  0.33414411  0.11492907  0.31205114     0.28900
H1246       H  0.42255909  0.99791539  0.16317054     0.33100
H1247       H  0.34075956  0.00391669  0.14998439     0.36000
H1248       H  0.34237707  0.97084600  0.30558263     0.28600
H1249       H  0.30905802  0.12250817  0.29272355     0.41500
H1250       H  0.45232360  0.11541168  0.24588894     0.31500
H1251       H  0.43905667  0.07814569  0.30826154     0.39200
H1252       H  0.29423602  0.06020315  0.16827381     0.31000
H1253       H  0.43805258  0.11750198  0.18422061     0.31100
H1254       H  0.39689546  0.98145165  0.16715356     0.31300
Zr1255     Zr  0.06598144  0.07372435  0.22681560     2.17500
O1256       O  0.03399640  0.10408167  0.24848586    -0.51000
O1257       O  0.03262815  0.04188122  0.21370791    -0.74200
O1258       O  0.05114887  0.07611919  0.17410277    -0.81000
O1259       O  0.09970308  0.06214693  0.29521159    -0.82800
O1260       O  0.05465344  0.11497501  0.15020392    -0.78400
O1261       O  0.06092887  0.05038590  0.27597442    -0.90000
O1262       O  0.05459727  0.01626067  0.17961244    -0.76000
O1263       O  0.08009210  0.06685368  0.17620923    -0.85500
O1264       O  0.09366998  0.03457941  0.23038545    -0.85200
O1265       O  0.08577737  0.11483573  0.20726147    -0.71900
O1266       O  0.10275706  0.08544495  0.25791408    -0.84100
Zr1267     Zr  0.16465292  0.08029408  0.19306744     2.26400
Zr1268     Zr  0.10165874  0.10633018  0.15614330     2.06300
Zr1269     Zr  0.13185739  0.04691776  0.25955596     2.10000
Zr1270     Zr  0.10392166  0.02713586  0.17852937     1.78800
O1271       O  0.14614971  0.03494010  0.31141623    -0.92900
O1272       O  0.09061142  0.02232423  0.12535152    -0.40700
O1273       O  0.14323237  0.03855676  0.20796048    -0.77300
O1274       O  0.12873090  0.06649339  0.16010777    -0.96000
O1275       O  0.13678402  0.11877750  0.18912666    -0.89300
O1276       O  0.15020167  0.08795478  0.24332138    -0.92100
C1277       C  0.03312162  0.02357755  0.19352179     1.01600
C1278       C  0.07810336  0.04971583  0.29753353     1.14600
C1279       C  0.04025034  0.09700433  0.16258125     1.05300
O1280       O  0.09398973  0.08992383  0.10485185    -0.94300
O1281       O  0.13914982  0.12505685  0.12795199    -0.90000
O1282       O  0.17670750  0.11066206  0.15170020    -0.83200
C1283       C  0.16426119  0.12444662  0.13115517     1.12000
O1284       O  0.08709116  0.15568423  0.25709036    -0.96300
Zr1285     Zr  0.12186266  0.12635530  0.23923961     1.88900
O1286       O  0.19268057  0.11119588  0.22264025    -0.72900
O1287       O  0.09494111  0.15380354  0.14236431    -0.52200
O1288       O  0.12673290  0.16992845  0.21304381    -0.96900
O1289       O  0.12374356  0.13590613  0.29349928    -0.54100
O1290       O  0.16627550  0.13925647  0.24921760    -0.73400
C1291       C  0.18866217  0.12983698  0.24221211     0.98900
O1292       O  0.19534359  0.05839024  0.15923026    -0.62200
O1293       O  0.12650909  0.99799980  0.26120337    -0.57100
O1294       O  0.19961115  0.05979710  0.22284920    -0.93700
O1295       O  0.18059002  0.04684155  0.26747396    -0.92200
O1296       O  0.10632439  0.98053208  0.19711507    -0.92500
O1297       O  0.13433915  0.99947420  0.15014600    -0.91300
C1298       C  0.20089733  0.05173702  0.25076014     1.17800
H1299       H  0.08455720  0.01925812  0.23914795     0.33700
H1300       H  0.13555844  0.06274564  0.14014027     0.44600
H1301       H  0.16327256  0.09088692  0.25882379     0.38100
H1302       H  0.07309565  0.12935627  0.20650946     0.34600
H1303       H  0.08650730  0.00290645  0.12343254     0.26300
H1304       H  0.08581998  0.15371264  0.12231066     0.32300
H1305       H  0.13300105  0.18222902  0.22903289     0.38200
H1306       H  0.09674458  0.97018273  0.18149348     0.32700
H1307       H  0.14456143  0.99067418  0.26236755     0.31500
H1308       H  0.15436176  0.01687015  0.31020430     0.33200
H1309       H  0.13545387  0.15170955  0.29518297     0.32200
H1310       H  0.14710219  0.01244082  0.14140797     0.36200
H1311       H  0.19515765  0.03912431  0.16576722     0.28900
H1312       H  0.01787429  0.09317294  0.25039943     0.33100
H1313       H  0.07376085  0.14319843  0.26555256     0.36000
H1314       H  0.11892010  0.99374839  0.28144227     0.28600
H1315       H  0.18651523  0.05867726  0.13899278     0.41500
H1316       H  0.07741073  0.07969486  0.10629184     0.31500
H1317       H  0.07336241  0.03144968  0.12368691     0.39200
H1318       H  0.13390282  0.12066923  0.30270412     0.31000
H1319       H  0.08170629  0.16039729  0.15679855     0.31100
H1320       H  0.03017180  0.11756843  0.23202880     0.31300
Zr1321     Zr  0.44557144  0.48520390  0.45113246     2.17500
O1322       O  0.45929291  0.49209158  0.00462974    -0.51000
O1323       O  0.48033718  0.50149031  0.42110100    -0.74200
O1324       O  0.48331023  0.45573099  0.46001968    -0.81000
O1325       O  0.40407531  0.54765833  0.43608504    -0.82800
O1326       O  0.46740568  0.43070711  0.42410414    -0.78400
O1327       O  0.44279063  0.53461424  0.45330615    -0.90000
O1328       O  0.46924430  0.48599970  0.37431969    -0.76000
O1329       O  0.44456063  0.45341391  0.41042873    -0.85500
O1330       O  0.41870121  0.50528172  0.41153934    -0.85200
O1331       O  0.42826009  0.44240368  0.46973384    -0.71900
O1332       O  0.40247998  0.49034867  0.47116701    -0.84100
Zr1333     Zr  0.35605011  0.43905191  0.41819760     2.26400
Zr1334     Zr  0.42381199  0.41205607  0.42695863     2.06300
Zr1335     Zr  0.37459296  0.50960752  0.43101084     2.10000
Zr1336     Zr  0.41974593  0.47449520  0.37225353     1.78800
O1337       O  0.35457021  0.54493678  0.46069048    -0.92900
O1338       O  0.43909764  0.44164208  0.33847220    -0.40700
O1339       O  0.37833530  0.47613832  0.39656516    -0.77300
O1340       O  0.39649837  0.43466037  0.38946210    -0.96000
O1341       O  0.38407127  0.41778375  0.45447190    -0.89300
O1342       O  0.35915891  0.47007761  0.45813878    -0.92100
C1343       C  0.48612631  0.49603049  0.39386903     1.01600
C1344       C  0.42040409  0.54527375  0.45795244     1.14600
C1345       C  0.48073720  0.43251495  0.44855996     1.05300
O1346       O  0.45388220  0.37726476  0.41010429    -0.94300
O1347       O  0.39960174  0.38253708  0.39204146    -0.90000
O1348       O  0.35711337  0.39643740  0.39365780    -0.83200
C1349       C  0.37513344  0.38060845  0.38489691     1.12000
O1350       O  0.40853490  0.46271386  0.04221378    -0.96300
Zr1351     Zr  0.38803561  0.44935469  0.49457115     1.88900
O1352       O  0.33789946  0.40737848  0.45904743    -0.72900
O1353       O  0.42284832  0.37692913  0.46689976    -0.52200
O1354       O  0.40759411  0.41186956  0.52397884    -0.96900
O1355       O  0.35615964  0.47327796  0.03111555    -0.54100
O1356       O  0.35253446  0.41973412  0.50573961    -0.73400
C1357       C  0.33881448  0.40479858  0.48871384     0.98900
O1358       O  0.32096157  0.43677784  0.38007271    -0.62200
O1359       O  0.36287494  0.53066083  0.38190355    -0.57100
O1360       O  0.31521156  0.46430478  0.42335597    -0.93700
O1361       O  0.32618452  0.50786631  0.43215437    -0.92200
O1362       O  0.41867272  0.51818079  0.34545346    -0.92500
O1363       O  0.39929182  0.47526676  0.32174215    -0.91300
C1364       C  0.30923730  0.48880292  0.42938219     1.17800
H1365       H  0.42636615  0.52142342  0.40273473     0.33700
H1366       H  0.39362201  0.42549944  0.37055150     0.44600
H1367       H  0.34290094  0.47275418  0.46861455     0.38100
H1368       H  0.43973055  0.43498221  0.48533861     0.34600
H1369       H  0.44801488  0.45264462  0.32256127     0.26300
H1370       H  0.40456409  0.37032713  0.46689363     0.32300
H1371       H  0.39003143  0.40205662  0.03596127     0.38200
H1372       H  0.43602138  0.51967777  0.33566036     0.32700
H1373       H  0.34350131  0.53127263  0.38141975     0.31500
H1374       H  0.35274709  0.56055492  0.44630066     0.33200
H1375       H  0.33928109  0.46352051  0.03115027     0.32200
H1376       H  0.38155552  0.46782982  0.32511965     0.36200
H1377       H  0.32999438  0.43609867  0.36021326     0.28900
H1378       H  0.47825372  0.48794083  0.00433382     0.33100
H1379       H  0.39852870  0.45533508  0.05974492     0.36000
H1380       H  0.36821926  0.54975649  0.38382294     0.28600
H1381       H  0.31288028  0.41874373  0.38283828     0.41500
H1382       H  0.45910366  0.38336862  0.38937126     0.31500
H1383       H  0.45358292  0.43330922  0.35062342     0.39200
H1384       H  0.35215340  0.49061620  0.02037456     0.31000
H1385       H  0.43300431  0.36157158  0.45904718     0.31100
H1386       H  0.45143620  0.47766381  0.01744081     0.31300
Zr1387     Zr  0.09445720  0.48103274  0.43826000     2.17500
O1388       O  0.06315780  0.49949064  0.40066374    -0.51000
O1389       O  0.06218562  0.49569387  0.47577331    -0.74200
O1390       O  0.06072618  0.44984487  0.42453930    -0.81000
O1391       O  0.14174342  0.52478450  0.39797096    -0.82800
O1392       O  0.07409108  0.40749605  0.43879735    -0.78400
O1393       O  0.10164968  0.52603613  0.41757312    -0.90000
O1394       O  0.07707869  0.49107494  0.02518948    -0.76000
O1395       O  0.09799999  0.45232756  0.48221639    -0.85500
O1396       O  0.12406241  0.50473027  0.47042253    -0.85200
O1397       O  0.11207673  0.43917405  0.41899896    -0.71900
O1398       O  0.13538838  0.48392965  0.41189321    -0.84100
Zr1399     Zr  0.18656206  0.43866782  0.46969233     2.26400
Zr1400     Zr  0.11690263  0.41110534  0.46447976     2.06300
Zr1401     Zr  0.16530546  0.50810546  0.44332591     2.10000
Zr1402     Zr  0.12362488  0.47616274  0.01766795     1.78800
O1403       O  0.18339721  0.54946324  0.42084463    -0.92900
O1404       O  0.10749051  0.44805198  0.05977913    -0.40700
O1405       O  0.16912432  0.48037492  0.48856917    -0.77300
O1406       O  0.14316271  0.43431603  0.00089196    -0.96000
O1407       O  0.15668031  0.41618476  0.43716795    -0.89300
O1408       O  0.18239559  0.46634571  0.42497118    -0.92100
C1409       C  0.06088408  0.49667794  0.50501912     1.01600
C1410       C  0.11724620  0.52994941  0.39548742     1.14600
C1411       C  0.05790615  0.42428887  0.42599478     1.05300
O1412       O  0.09806283  0.40012502  0.01615403    -0.94300
O1413       O  0.14763651  0.37736894  0.96205962    -0.90000
O1414       O  0.18220121  0.39311678  0.98893690    -0.83200
C1415       C  0.17023831  0.37446848  0.97491015     1.12000
O1416       O  0.12962541  0.45994283  0.34700991    -0.96300
Zr1417     Zr  0.15267727  0.44337925  0.39273604     1.88900
O1418       O  0.20930217  0.40825240  0.43480688    -0.72900
O1419       O  0.10149128  0.36453234  0.46265803    -0.52200
O1420       O  0.13359114  0.40750089  0.36267150    -0.96900
O1421       O  0.18454724  0.46357188  0.35789110    -0.54100
O1422       O  0.18523630  0.40759167  0.39087366    -0.73400
C1423       C  0.20392727  0.39891408  0.40824518     0.98900
O1424       O  0.21285756  0.43595235  0.01713457    -0.62200
O1425       O  0.16381586  0.54277935  0.48195567    -0.57100
O1426       O  0.22659459  0.46439255  0.46076880    -0.93700
O1427       O  0.21377998  0.50581365  0.44253369    -0.92200
O1428       O  0.12811340  0.52061146  0.03974940    -0.92500
O1429       O  0.15167743  0.47485848  0.06298195    -0.91300
C1430       C  0.23151124  0.48806838  0.44966761     1.17800
H1431       H  0.11699393  0.52219376  0.47536059     0.33700
H1432       H  0.14624828  0.42257434  0.01849838     0.44600
H1433       H  0.19840036  0.46803672  0.41365417     0.38100
H1434       H  0.10121239  0.43151610  0.40333122     0.34600
H1435       H  0.10271080  0.46096418  0.07574952     0.26300
H1436       H  0.08411510  0.36435189  0.47248082     0.32300
H1437       H  0.14601216  0.40495246  0.34575436     0.38200
H1438       H  0.11431798  0.52131573  0.05543105     0.32700
H1439       H  0.18174628  0.55031777  0.48263897     0.31500
H1440       H  0.16925373  0.56315902  0.42156304     0.33200
H1441       H  0.17906336  0.45796217  0.33725574     0.32200
H1442       H  0.16683774  0.46361182  0.05724992     0.36200
H1443       H  0.21183427  0.45390877  0.02655332     0.28900
H1444       H  0.04565011  0.49775611  0.41002264     0.33100
H1445       H  0.11862723  0.47504539  0.35398317     0.36000
H1446       H  0.15283320  0.55749512  0.47297413     0.28600
H1447       H  0.20376481  0.42373593  0.03171233     0.41500
H1448       H  0.07876468  0.40158509  0.01424495     0.31500
H1449       H  0.09044299  0.44116333  0.05242196     0.39200
H1450       H  0.20103260  0.45344879  0.36187007     0.31000
H1451       H  0.09784537  0.36115568  0.44082891     0.31100
H1452       H  0.06306308  0.48685650  0.38346413     0.31300
Zr1453     Zr  0.26949175  0.22901142  0.27031601     2.17500
O1454       O  0.23501940  0.21599689  0.23451764    -0.51000
O1455       O  0.30675576  0.20629033  0.24726514    -0.74200
O1456       O  0.27489327  0.24950197  0.22105669    -0.81000
O1457       O  0.23340299  0.18033089  0.31934530    -0.82800
O1458       O  0.29297417  0.29092887  0.22498167    -0.78400
O1459       O  0.25264508  0.18464306  0.27280936    -0.90000
O1460       O  0.34149754  0.21039544  0.27962355    -0.76000
O1461       O  0.30674772  0.24983674  0.28389322    -0.85500
O1462       O  0.28453691  0.20641456  0.31585213    -0.85200
O1463       O  0.25790411  0.27587600  0.27304798    -0.71900
O1464       O  0.23611672  0.23735757  0.30740905    -0.84100
Zr1465     Zr  0.28562593  0.28321925  0.36725440     2.26400
Zr1466     Zr  0.30002917  0.29550699  0.28163167     2.06300
Zr1467     Zr  0.25183770  0.21517808  0.35326205     2.10000
Zr1468     Zr  0.32486184  0.22806713  0.32574608     1.78800
O1469       O  0.20672903  0.20789538  0.36881527    -0.92900
O1470       O  0.36997332  0.24408098  0.32499139    -0.40700
O1471       O  0.29339239  0.23558824  0.36457046    -0.77300
O1472       O  0.31711808  0.27476408  0.32830085    -0.96000
O1473       O  0.26957786  0.30529323  0.32163811    -0.89300
O1474       O  0.24410916  0.26286988  0.35859196    -0.92100
C1475       C  0.33101342  0.20316323  0.25462692     1.01600
C1476       C  0.23766988  0.17280376  0.29173667     1.14600
C1477       C  0.28298239  0.27163709  0.20911984     1.05300
O1478       O  0.34173247  0.29948831  0.25554985    -0.94300
O1479       O  0.32724579  0.32614593  0.31144134    -0.90000
O1480       O  0.31711352  0.31946968  0.36181019    -0.83200
C1481       C  0.33032568  0.33049496  0.34013176     1.12000
O1482       O  0.19180993  0.27333011  0.27988169    -0.96300
Zr1483     Zr  0.22809094  0.28498168  0.31369780     1.88900
O1484       O  0.25890289  0.32104917  0.38283467    -0.72900
O1485       O  0.28561381  0.34025702  0.26403744    -0.52200
O1486       O  0.21755423  0.32302401  0.27946177    -0.96900
O1487       O  0.18684744  0.27842781  0.34055455    -0.54100
O1488       O  0.22507331  0.32308427  0.34869987    -0.73400
C1489       C  0.23796158  0.33198454  0.37179717     0.98900
O1490       O  0.31864522  0.28467171  0.40792835    -0.62200
O1491       O  0.26802554  0.17275605  0.37570531    -0.57100
O1492       O  0.26968473  0.26199985  0.41421186    -0.93700
O1493       O  0.25065385  0.22088164  0.40933950    -0.92200
O1494       O  0.33369762  0.18038144  0.33658609    -0.92500
O1495       O  0.34920184  0.22677224  0.37393302    -0.91300
C1496       C  0.25865323  0.24067931  0.42557720     1.17800
H1497       H  0.28731608  0.18730220  0.31325097     0.33700
H1498       H  0.33428064  0.28128046  0.33356668     0.44600
H1499       H  0.23228768  0.26613346  0.37518459     0.38100
H1500       H  0.24991837  0.28254875  0.25427945     0.34600
H1501       H  0.38056623  0.22811598  0.31967963     0.26300
H1502       H  0.26720858  0.33777713  0.25739924     0.32300
H1503       H  0.22443190  0.33908222  0.28989555     0.38200
H1504       H  0.35304865  0.17892998  0.33691906     0.32700
H1505       H  0.28675640  0.17615087  0.38020001     0.31500
H1506       H  0.20644027  0.18904547  0.37682680     0.33200
H1507       H  0.18914428  0.28711979  0.36052368     0.32200
H1508       H  0.33953206  0.21393450  0.38726645     0.36200
H1509       H  0.31803001  0.26670989  0.41826889     0.28900
H1510       H  0.24404726  0.20948671  0.21616102     0.33100
H1511       H  0.17885971  0.28814044  0.28148556     0.36000
H1512       H  0.25974442  0.17109961  0.39599070     0.28600
H1513       H  0.33573442  0.28443696  0.39744460     0.41500
H1514       H  0.35461008  0.29099411  0.26984603     0.31500
H1515       H  0.37093625  0.25622032  0.30679068     0.39200
H1516       H  0.18629941  0.25885019  0.34557226     0.31000
H1517       H  0.28444308  0.35103154  0.28273374     0.31100
H1518       H  0.22638138  0.23308746  0.22783563     0.31300
Zr1519     Zr  0.27301199  0.28335482  0.01928920     2.17500
O1520       O  0.31361195  0.28572122  0.48419698    -0.51000
O1521       O  0.23848891  0.30945133  0.99282159    -0.74200
O1522       O  0.26705942  0.26189053  0.47061776    -0.81000
O1523       O  0.30038337  0.33796943  0.06595556    -0.82800
O1524       O  0.24619786  0.22190900  0.47652118    -0.78400
O1525       O  0.29005568  0.32772461  0.01692065    -0.90000
O1526       O  0.20240329  0.30682150  0.02263704    -0.76000
O1527       O  0.23529830  0.26194215  0.03073035    -0.85500
O1528       O  0.25442972  0.30632114  0.06088182    -0.85200
O1529       O  0.28441796  0.23655768  0.02656660    -0.71900
O1530       O  0.30440073  0.27603739  0.05993669    -0.84100
Zr1531     Zr  0.25149206  0.23104669  0.11848586     2.26400
Zr1532     Zr  0.24234623  0.21637029  0.03270182     2.06300
Zr1533     Zr  0.28560782  0.29976414  0.10145815     2.10000
Zr1534     Zr  0.21406078  0.28367414  0.06883782     1.78800
O1535       O  0.33069896  0.31031559  0.11518916    -0.92900
O1536       O  0.17074745  0.26729095  0.05458850    -0.40700
O1537       O  0.24369723  0.27853571  0.11098442    -0.77300
O1538       O  0.22181461  0.23699750  0.07602213    -0.96000
O1539       O  0.27017571  0.20803890  0.07664733    -0.89300
O1540       O  0.29309367  0.25206445  0.11164091    -0.92100
C1541       C  0.21437572  0.31446835  0.99869731     1.01600
C1542       C  0.29944319  0.34345368  0.03665944     1.14600
C1543       C  0.25665859  0.24085051  0.45969905     1.05300
O1544       O  0.20304011  0.20170615  0.00596863    -0.94300
O1545       O  0.21747919  0.18297815  0.06285248    -0.90000
O1546       O  0.22367794  0.19145152  0.11352221    -0.83200
C1547       C  0.21352309  0.17815930  0.09148329     1.12000
O1548       O  0.34834524  0.23271449  0.03606625    -0.96300
Zr1549     Zr  0.31183227  0.22831975  0.07121795     1.88900
O1550       O  0.27767707  0.19522249  0.14142543    -0.72900
O1551       O  0.26648752  0.17614790  0.01838229    -0.52200
O1552       O  0.32135679  0.18521605  0.04798356    -0.96900
O1553       O  0.35224249  0.23997982  0.09801066    -0.54100
O1554       O  0.31488242  0.19396657  0.11348666    -0.73400
C1555       C  0.30014796  0.18532304  0.13543836     0.98900
O1556       O  0.21648097  0.23043239  0.15593573    -0.62200
O1557       O  0.26738186  0.33938455  0.12548866    -0.57100
O1558       O  0.26684550  0.25202430  0.16494245    -0.93700
O1559       O  0.28729235  0.29248629  0.15796569    -0.92200
O1560       O  0.20317454  0.32940963  0.08396275    -0.92500
O1561       O  0.18390920  0.28043441  0.11154996    -0.91300
C1562       C  0.27898028  0.27280281  0.17516928     1.17800
H1563       H  0.25120213  0.32519705  0.05619994     0.33700
H1564       H  0.20489213  0.22920680  0.08020465     0.44600
H1565       H  0.30438211  0.24934993  0.12926658     0.38100
H1566       H  0.29299916  0.22975511  0.00873816     0.34600
H1567       H  0.16098238  0.28341947  0.04695857     0.26300
H1568       H  0.25775617  0.16104530  0.02936498     0.32300
H1569       H  0.30960392  0.17208037  0.05825851     0.38200
H1570       H  0.18715106  0.33422018  0.07209755     0.32700
H1571       H  0.28180888  0.35269424  0.12526158     0.31500
H1572       H  0.32950695  0.31965005  0.13487319     0.33200
H1573       H  0.34970795  0.23397850  0.11948550     0.32200
H1574       H  0.19267742  0.29005279  0.12836142     0.36200
H1575       H  0.21636958  0.24875433  0.16450800     0.28900
H1576       H  0.30640950  0.29476820  0.46553922     0.33100
H1577       H  0.36168749  0.21955192  0.04359900     0.36000
H1578       H  0.25443693  0.34672589  0.11047768     0.28600
H1579       H  0.20010551  0.22979239  0.14366666     0.41500
H1580       H  0.19146786  0.21777253  0.00527866     0.31500
H1581       H  0.17369816  0.25643583  0.03623816     0.39200
H1582       H  0.35203105  0.25994364  0.09863141     0.31000
H1583       H  0.26180739  0.17357700  0.99665365     0.31100
H1584       H  0.31797963  0.26716104  0.47797132     0.31300
C1585       C  0.22824564  0.35610064  0.38621389    -0.13000
C1586       C  0.21878158  0.37614636  0.39727669    -0.14500
C1587       C  0.18403769  0.34954952  0.97297641    -0.13000
C1588       C  0.19921889  0.33163933  0.97897117    -0.14500
C1589       C  0.36628415  0.36074361  0.36425352    -0.13000
C1590       C  0.35140588  0.34719978  0.34977404    -0.14500
C1591       C  0.28180431  0.49417557  0.43572117    -0.13000
C1592       C  0.25872857  0.49388068  0.44252691    -0.14500
C1593       C  0.32549751  0.38284862  0.50513881    -0.13000
C1594       C  0.30967890  0.36838941  0.02303385    -0.14500
C1595       C  0.22321504  0.15131457  0.27857716    -0.13000
C1596       C  0.20977514  0.13932012  0.26070658    -0.14500
C1597       C  0.18002796  0.14152827  0.11166216    -0.13000
C1598       C  0.19528024  0.15722126  0.10002835    -0.14500
C1599       C  0.34772921  0.18806327  0.23559830    -0.13000
C1600       C  0.36159287  0.16909492  0.23085340    -0.14500
C1601       C  0.25096063  0.05019982  0.26851707    -0.13000
C1602       C  0.22735900  0.04956587  0.26362116    -0.14500
C1603       C  0.31394607  0.14235243  0.17014712    -0.13000
C1604       C  0.30867172  0.16235612  0.15449359    -0.14500
C1605       C  0.01996240  0.41045066  0.38955426    -0.13000
C1606       C  0.03671923  0.41434390  0.40831208    -0.14500
C1607       C  0.83204260  0.28718401  0.42024848    -0.13000
C1608       C  0.85085448  0.29548277  0.40610237    -0.14500
C1609       C  0.80420562  0.34160147  0.29583389    -0.13000
C1610       C  0.78685938  0.32920888  0.28383370    -0.14500
C1611       C  0.01317719  0.10061642  0.16842098    -0.13000
C1612       C  0.99360918  0.10109983  0.18328718    -0.14500
C1613       C  0.80365928  0.19256932  0.36432622    -0.13000
C1614       C  0.82061199  0.17983229  0.35217518    -0.14500
C1615       C  0.95884904  0.24741647  0.28679056    -0.13000
C1616       C  0.95730743  0.27076390  0.29385017    -0.14500
C1617       C  0.85599171  0.23201228  0.23277337    -0.13000
C1618       C  0.83770011  0.24394055  0.22143325    -0.14500
C1619       C  0.49666736  0.04909803  0.17124053    -0.13000
C1620       C  0.48280594  0.04550862  0.19241304    -0.14500
C1621       C  0.62980388  0.18241667  0.09019315    -0.13000
C1622       C  0.64592306  0.19447924  0.10504459    -0.14500
C1623       C  0.61497929  0.14642606  0.46371038    -0.13000
C1624       C  0.62917143  0.16539673  0.46087625    -0.14500
C1625       C  0.47147767  0.39200950  0.98969694    -0.13000
C1626       C  0.48133378  0.40966240  0.46874136    -0.14500
C1627       C  0.58980551  0.31494228  0.18486722    -0.13000
C1628       C  0.60714974  0.29908248  0.18861564    -0.14500
C1629       C  0.50129645  0.23289366  0.07942583    -0.13000
C1630       C  0.50516914  0.20875966  0.07617147    -0.14500
C1631       C  0.61100527  0.28509661  0.05482937    -0.13000
C1632       C  0.63043369  0.28008511  0.04003359    -0.14500
C1633       C  0.01180773  0.51103276  0.52179556    -0.13000
C1634       C  0.03506853  0.50480875  0.51778887    -0.14500
C1635       C  0.90921874  0.45791091  0.42327262    -0.13000
C1636       C  0.89650248  0.45878021  0.40019044    -0.14500
C1637       C  0.80394664  0.62928356  0.37751305    -0.13000
C1638       C  0.81359317  0.61046268  0.39233177    -0.14500
C1639       C  0.82327526  0.67135305  0.00249539    -0.13000
C1640       C  0.83845943  0.65490343  0.99292950    -0.14500
C1641       C  0.51429787  0.50067551  0.38794820    -0.13000
C1642       C  0.53737969  0.50537379  0.39496881    -0.14500
C1643       C  0.59855349  0.44566690  0.02627945    -0.13000
C1644       C  0.58358724  0.44039251  0.04635125    -0.14500
C1645       C  0.69589500  0.66755552  0.44091232    -0.13000
C1646       C  0.68347621  0.65061615  0.45420101    -0.14500
C1647       C  0.75812136  0.49778265  0.47643902    -0.13000
C1648       C  0.78172855  0.49835687  0.47962021    -0.14500
C1649       C  0.72508180  0.62222948  0.06645799    -0.13000
C1650       C  0.71756462  0.60293431  0.55772607    -0.14500
C1651       C  0.98398121  0.00436575  0.18529415    -0.13000
C1652       C  0.00711555  0.01173661  0.18631113    -0.14500
C1653       C  0.90233796  0.00004381  0.29913247    -0.13000
C1654       C  0.89295458  0.02221121  0.29803646    -0.14500
C1655       C  0.78731854  0.85500563  0.23682470    -0.13000
C1656       C  0.77801377  0.83668333  0.25193700    -0.14500
C1657       C  0.81983824  0.87237589  0.10868189    -0.13000
C1658       C  0.80554290  0.85448666  0.10152244    -0.14500
C1659       C  0.50660210  0.99190925  0.27501918    -0.13000
C1660       C  0.48295290  0.99755662  0.27764393    -0.14500
C1661       C  0.61380429  0.00445516  0.11949860    -0.13000
C1662       C  0.60963980  0.00784891  0.09257887    -0.14500
C1663       C  0.64377528  0.83743322  0.30552717    -0.13000
C1664       C  0.65996351  0.82229286  0.31635956    -0.14500
C1665       C  0.76119794  0.96805607  0.24471957    -0.13000
C1666       C  0.73743084  0.96841347  0.24599486    -0.14500
C1667       C  0.69313431  0.84921469  0.18824055    -0.13000
C1668       C  0.70210348  0.82972504  0.17520325    -0.14500
C1669       C  0.95905507  0.51620635  0.26143902    -0.13000
C1670       C  0.95222665  0.49267208  0.26410793    -0.14500
C1671       C  0.97216490  0.60856632  0.40248158    -0.13000
C1672       C  0.97320538  0.59851211  0.42744833    -0.14500
C1673       C  0.10601507  0.53366030  0.36596563    -0.13000
C1674       C  0.09247366  0.53546059  0.34357297    -0.14500
C1675       C  0.12230456  0.69343518  0.31765638    -0.13000
C1676       C  0.14032557  0.69969786  0.33431328    -0.14500
C1677       C  0.11960267  0.66776174  0.19511609    -0.13000
C1678       C  0.10420760  0.64982185  0.19732210    -0.14500
C1679       C  0.98195519  0.99462531  0.32119582    -0.13000
C1680       C  0.97392995  0.01812621  0.32126377    -0.14500
C1681       C  0.07625258  0.02947581  0.32085962    -0.13000
C1682       C  0.07683668  0.00646450  0.32974690    -0.14500
C1683       C  0.99581941  0.92287728  0.18363028    -0.13000
C1684       C  0.97684063  0.92193091  0.16759692    -0.14500
C1685       C  0.13965231  0.82406237  0.41210715    -0.13000
C1686       C  0.12443532  0.84141191  0.40411155    -0.14500
C1687       C  0.01788772  0.76748803  0.28342881    -0.13000
C1688       C  0.01521059  0.74324808  0.28186165    -0.14500
C1689       C  0.15208367  0.78347711  0.27554276    -0.13000
C1690       C  0.13510428  0.79640834  0.28729022    -0.14500
C1691       C  0.51534605  0.89925768  0.18244586    -0.13000
C1692       C  0.50152166  0.89266815  0.16197179    -0.14500
C1693       C  0.35442919  0.93315250  0.16482048    -0.13000
C1694       C  0.35418466  0.94263213  0.18965392    -0.14500
C1695       C  0.45754223  0.97116835  0.03399208    -0.13000
C1696       C  0.46964038  0.99236817  0.03132906    -0.14500
C1697       C  0.35815360  0.75411899  0.14205910    -0.13000
C1698       C  0.34065376  0.74170522  0.15426799    -0.14500
C1699       C  0.29041498  0.78980778  0.03456557    -0.13000
C1700       C  0.30514152  0.80480067  0.04711992    -0.14500
C1701       C  0.44685258  0.48670462  0.13663974    -0.13000
C1702       C  0.45351047  0.46284079  0.13439290    -0.14500
C1703       C  0.53989747  0.57538773  0.53005186    -0.13000
C1704       C  0.52520195  0.57923807  0.04903724    -0.14500
C1705       C  0.40769598  0.53920996  0.99110548    -0.13000
C1706       C  0.39901906  0.53084668  0.01463508    -0.14500
C1707       C  0.29622446  0.63772918  0.07685389    -0.13000
C1708       C  0.27885150  0.65127425  0.08647698    -0.14500
C1709       C  0.44302316  0.72135661  0.09163036    -0.13000
C1710       C  0.44679027  0.74496946  0.08733637    -0.14500
C1711       C  0.35053444  0.68509776  0.99068505    -0.13000
C1712       C  0.33280519  0.69312224  0.97375470    -0.14500
Zr1713     Zr  0.38608056  0.64696368  0.58823157     2.17500
O1714       O  0.36612110  0.67118285  0.62995652    -0.51000
O1715       O  0.36808033  0.67419093  0.54335610    -0.74200
O1716       O  0.41158187  0.68735999  0.59925380    -0.81000
O1717       O  0.32690618  0.60484342  0.56782486    -0.82800
O1718       O  0.45393772  0.67458330  0.60759250    -0.78400
O1719       O  0.33952009  0.64494953  0.58766771    -0.90000
O1720       O  0.38590400  0.65832503  0.49991087    -0.76000
O1721       O  0.42582699  0.64927474  0.56115407    -0.85500
O1722       O  0.37735835  0.62051497  0.54474443    -0.85200
O1723       O  0.41801508  0.62573216  0.62275121    -0.71900
O1724       O  0.37634374  0.60205722  0.60881196    -0.84100
Zr1725     Zr  0.44082073  0.55905743  0.56573283     2.26400
Zr1726     Zr  0.45770941  0.62782670  0.59444759     2.06300
Zr1727     Zr  0.36639084  0.57693169  0.56419084     2.10000
Zr1728     Zr  0.41690015  0.62426483  0.51672029     1.78800
O1729       O  0.33406240  0.55347901  0.59534318    -0.92900
O1730       O  0.44332482  0.66386307  0.50398484    -0.40700
O1731       O  0.40632255  0.58030395  0.53576505    -0.77300
O1732       O  0.45041410  0.60416326  0.54785531    -0.96000
O1733       O  0.45000830  0.58235777  0.61130170    -0.89300
O1734       O  0.40092698  0.55667614  0.59405616    -0.92100
C1735       C  0.36998717  0.67357621  0.51378437     1.01600
C1736       C  0.32235902  0.62863388  0.57768727     1.14600
C1737       C  0.43563234  0.69217393  0.60620568     1.05300
O1738       O  0.49479566  0.65752059  0.58490538    -0.94300
O1739       O  0.49614832  0.60762689  0.57334368    -0.90000
O1740       O  0.48758424  0.56271355  0.57293849    -0.83200
C1741       C  0.50210510  0.58322170  0.56766982     1.12000
O1742       O  0.39372633  0.59744120  0.68613612    -0.96300
Zr1743     Zr  0.41050012  0.57898106  0.63901667     1.88900
O1744       O  0.44996511  0.52133010  0.59947321    -0.72900
O1745       O  0.47757480  0.62163110  0.64483872    -0.52200
O1746       O  0.44509615  0.58297535  0.67734237    -0.96900
O1747       O  0.37440137  0.55375725  0.66176242    -0.54100
O1748       O  0.42616773  0.53005553  0.64180861    -0.73400
C1749       C  0.44005746  0.51406265  0.62501957     0.98900
O1750       O  0.46158071  0.54457184  0.51918718    -0.62200
O1751       O  0.34321206  0.56842749  0.51663144    -0.57100
O1752       O  0.41484720  0.51915823  0.55714642    -0.93700
O1753       O  0.37322519  0.52969889  0.55203613    -0.92200
O1754       O  0.39909725  0.60917602  0.46828193    -0.92500
O1755       O  0.44593390  0.60866864  0.47691518    -0.91300
C1756       C  0.39500470  0.52342987  0.54015856     1.17800
H1757       H  0.36225400  0.62613335  0.53284307     0.33700
H1758       H  0.46532180  0.60416186  0.53456388     0.44600
H1759       H  0.39563971  0.53869588  0.60016244     0.38100
H1760       H  0.41986176  0.63661021  0.64066328     0.34600
H1761       H  0.46241378  0.65045515  0.00301867     0.26300
H1762       H  0.49339307  0.61055280  0.64132102     0.32300
H1763       H  0.45721322  0.56781255  0.67350197     0.38200
H1764       H  0.38232202  0.60041350  0.47365211     0.32700
H1765       H  0.32506152  0.56418795  0.52281630     0.31500
H1766       H  0.32306499  0.54372304  0.58048877     0.33200
H1767       H  0.37374710  0.53655143  0.65072157     0.32200
H1768       H  0.44526946  0.61658432  0.96013449     0.36200
H1769       H  0.46508704  0.56142526  0.50738795     0.28900
H1770       H  0.36166767  0.68927154  0.62126559     0.33100
H1771       H  0.39871328  0.58424500  0.70252253     0.36000
H1772       H  0.34187473  0.58629779  0.50614437     0.28600
H1773       H  0.47915277  0.53785526  0.52541047     0.41500
H1774       H  0.49170883  0.66500335  0.56401356     0.31500
H1775       H  0.45955197  0.66169145  0.51637872     0.39200
H1776       H  0.35843668  0.56361181  0.65484343     0.31000
H1777       H  0.48447220  0.63966391  0.64987949     0.31100
H1778       H  0.38052292  0.67441393  0.64472430     0.31300
Zr1779     Zr  0.39829403  0.81207089  0.57187915     2.17500
O1780       O  0.38717259  0.78948538  0.01663653    -0.51000
O1781       O  0.37727424  0.77971037  0.60716144    -0.74200
O1782       O  0.42877602  0.77569877  0.57841911    -0.81000
O1783       O  0.33371103  0.84370554  0.55656490    -0.82800
O1784       O  0.45588097  0.78985831  0.61587646    -0.78400
O1785       O  0.35583539  0.80414563  0.55166228    -0.90000
O1786       O  0.37461597  0.79907947  0.65361130    -0.76000
O1787       O  0.41968024  0.81704001  0.61958953    -0.85500
O1788       O  0.36933768  0.83836216  0.60134294    -0.85200
O1789       O  0.43868399  0.83395333  0.55867924    -0.71900
O1790       O  0.39222308  0.85324205  0.54210091    -0.84100
Zr1791     Zr  0.42571642  0.90814181  0.60965720     2.26400
Zr1792     Zr  0.45962981  0.83905723  0.60724753     2.06300
Zr1793     Zr  0.36350264  0.87959313  0.57239906     2.10000
Zr1794     Zr  0.39157502  0.84396462  0.64868734     1.78800
O1795       O  0.35774182  0.90711778  0.52599303    -0.92900
O1796       O  0.41743238  0.82484721  0.69109333    -0.40700
O1797       O  0.38675119  0.88382730  0.61892799    -0.77300
O1798       O  0.43166567  0.86619976  0.63836213    -0.96000
O1799       O  0.45511759  0.88199840  0.58055359    -0.89300
O1800       O  0.40337871  0.90394145  0.56192600    -0.92100
C1801       C  0.37091910  0.77962071  0.63553502     1.01600
C1802       C  0.33518878  0.81855811  0.55028194     1.14600
C1803       C  0.44461946  0.77123699  0.60056463     1.05300
O1804       O  0.49682080  0.81910462  0.63495947    -0.94300
O1805       O  0.48276039  0.86625870  0.64359817    -0.90000
O1806       O  0.46255414  0.90724965  0.64481049    -0.83200
C1807       C  0.47977183  0.88999689  0.65387484     1.12000
O1808       O  0.41694825  0.85850051  0.97744199    -0.96300
Zr1809     Zr  0.43279508  0.87738575  0.53287051     1.88900
O1810       O  0.44300724  0.94269223  0.57480965    -0.72900
O1811       O  0.49429152  0.83594069  0.56970990    -0.52200
O1812       O  0.47843009  0.87123950  0.51868350    -0.96900
O1813       O  0.39499653  0.90619513  0.98777412    -0.54100
O1814       O  0.44924514  0.92419236  0.52860840    -0.73400
C1815       C  0.45054715  0.94407396  0.54701389     0.98900
O1816       O  0.43025380  0.95086355  0.63570889    -0.62200
O1817       O  0.31812055  0.89529634  0.57065412    -0.57100
O1818       O  0.38665467  0.92775434  0.63164333    -0.93700
O1819       O  0.34913620  0.91068166  0.61158322    -0.92200
O1820       O  0.34733343  0.85058803  0.66739402    -0.92500
O1821       O  0.38788475  0.87283687  0.69270762    -0.91300
C1822       C  0.36163016  0.92564024  0.63029215     1.17800
H1823       H  0.35297098  0.82940520  0.60561111     0.33700
H1824       H  0.43771319  0.86837423  0.65906054     0.44600
H1825       H  0.39981156  0.92141216  0.55250133     0.38100
H1826       H  0.44886134  0.82218342  0.54606673     0.34600
H1827       H  0.41019048  0.80660724  0.69505142     0.26300
H1828       H  0.50991285  0.84365303  0.57981486     0.32300
H1829       H  0.47649768  0.88804579  0.01463471     0.38200
H1830       H  0.33878432  0.86249916  0.65177218     0.32700
H1831       H  0.31137305  0.89102610  0.55005470     0.31500
H1832       H  0.35002323  0.89466026  0.51103064     0.33200
H1833       H  0.39084316  0.92368105  0.99712322     0.32200
H1834       H  0.39670630  0.88983024  0.68645701     0.36200
H1835       H  0.42980158  0.94575364  0.65763873     0.28900
H1836       H  0.38714377  0.77001061  0.02228550     0.33100
H1837       H  0.42696914  0.86932466  0.96232010     0.36000
H1838       H  0.30856691  0.88292710  0.58467387     0.28600
H1839       H  0.44847911  0.95688974  0.63225005     0.41500
H1840       H  0.48976402  0.81319338  0.65499920     0.31500
H1841       H  0.43494416  0.82146643  0.68242434     0.39200
H1842       H  0.37812258  0.89641725  0.98733969     0.31000
H1843       H  0.49812248  0.81637961  0.56861529     0.31100
H1844       H  0.40363191  0.79230726  0.00525754     0.31300
Zr1845     Zr  0.05832560  0.84114273  0.83327716     2.17500
O1846       O  0.04407085  0.81090895  0.87453195    -0.51000
O1847       O  0.09518878  0.81436171  0.81392064    -0.74200
O1848       O  0.03686117  0.80149127  0.81311008    -0.81000
O1849       O  0.10233826  0.88005899  0.88655708    -0.82800
O1850       O  0.01582679  0.81473949  0.76934394    -0.78400
O1851       O  0.08562253  0.83827107  0.87799562    -0.90000
O1852       O  0.11884088  0.84110145  0.78152633    -0.76000
O1853       O  0.06300108  0.84876580  0.78006020    -0.85500
O1854       O  0.09206265  0.87379552  0.82660863    -0.85200
O1855       O  0.01562055  0.85745658  0.81800311    -0.71900
O1856       O  0.04307161  0.88025803  0.86006587    -0.84100
Zr1857     Zr  0.04045326  0.93644283  0.78118420     2.26400
Zr1858     Zr  0.02074580  0.86388368  0.76424626     2.06300
Zr1859     Zr  0.07781539  0.91227200  0.85370019     2.10000
Zr1860     Zr  0.09590580  0.88262394  0.77372454     1.78800
O1861       O  0.06514920  0.92285100  0.90551596    -0.92900
O1862       O  0.10316385  0.86279550  0.72405386    -0.40700
O1863       O  0.08260716  0.92191128  0.79995529    -0.77300
O1864       O  0.05438827  0.89695972  0.75525875    -0.96000
O1865       O  0.00606798  0.90456862  0.78762230    -0.89300
O1866       O  0.03676851  0.92930857  0.83494193    -0.92100
C1867       C  0.11452160  0.81893439  0.79582758     1.01600
C1868       C  0.10138554  0.85432481  0.89115818     1.14600
C1869       C  0.02313464  0.79667123  0.78920726     1.05300
O1870       O  0.02738976  0.84158593  0.71598344    -0.94300
O1871       O  0.01034088  0.89236067  0.72091640    -0.90000
O1872       O  0.01862353  0.93646149  0.73138536    -0.83200
C1873       C  0.01052807  0.91756183  0.71408156     1.12000
O1874       O  0.97499703  0.87059200  0.87409263    -0.96300
Zr1875     Zr  0.00188013  0.89918840  0.84118554     1.88900
O1876       O  0.00547994  0.96689008  0.79492405    -0.72900
O1877       O  0.97362539  0.85696778  0.76033522    -0.52200
O1878       O  0.95770897  0.89237746  0.82151920    -0.96900
O1879       O  0.99833683  0.91309097  0.89397806    -0.54100
O1880       O  0.98596211  0.94721539  0.83616748    -0.73400
C1881       C  0.98997256  0.96761698  0.81769741     0.98900
O1882       O  0.06107036  0.96800406  0.74548371    -0.62200
O1883       O  0.12193484  0.93016627  0.85925054    -0.57100
O1884       O  0.05874613  0.97426726  0.80718571    -0.93700
O1885       O  0.07819418  0.96145885  0.85247118    -0.92200
O1886       O  0.13990588  0.89543499  0.78958650    -0.92500
O1887       O  0.11307534  0.91576216  0.73720352    -0.91300
C1888       C  0.07001261  0.97916104  0.83270844     1.17800
H1889       H  0.10890027  0.86720334  0.83371000     0.33700
H1890       H  0.05665778  0.90084027  0.73376318     0.44600
H1891       H  0.03258394  0.94547616  0.84571771     0.38100
H1892       H  0.00266727  0.84370653  0.82205030     0.34600
H1893       H  0.09516528  0.84463688  0.72558946     0.26300
H1894       H  0.97127753  0.84567849  0.74214901     0.32300
H1895       H  0.94853684  0.90970210  0.82475625     0.38200
H1896       H  0.13850806  0.91481461  0.79441221     0.32700
H1897       H  0.12481921  0.93120955  0.88157853     0.31500
H1898       H  0.06248953  0.90509734  0.91584260     0.33200
H1899       H  0.00587310  0.93147753  0.89418666     0.32200
H1900       H  0.10884462  0.93350535  0.74591168     0.36200
H1901       H  0.06393973  0.95775639  0.72666578     0.28900
H1902       H  0.05132056  0.79293273  0.86978933     0.33100
H1903       H  0.98508812  0.85357072  0.87659623     0.36000
H1904       H  0.13359629  0.91536990  0.85285749     0.28600
H1905       H  0.04716980  0.98127080  0.73998999     0.41500
H1906       H  0.04661791  0.83949139  0.71454687     0.31500
H1907       H  0.09158125  0.87299928  0.70963936     0.39200
H1908       H  0.01123156  0.90173561  0.90544693     0.31000
H1909       H  0.96927844  0.84485079  0.77782420     0.31100
H1910       H  0.02490210  0.80914720  0.87160119     0.31300
Zr1911     Zr  0.04957188  0.66276467  0.75460844     2.17500
O1912       O  0.06285539  0.69476562  0.71452881    -0.51000
O1913       O  0.09030990  0.68159655  0.77793804    -0.74200
O1914       O  0.02555916  0.70514692  0.75722865    -0.81000
O1915       O  0.09403443  0.61137353  0.72389223    -0.82800
O1916       O  0.00353692  0.70136262  0.80170953    -0.78400
O1917       O  0.06190176  0.63906991  0.70983786    -0.90000
O1918       O  0.07732816  0.68080160  0.82624474    -0.76000
O1919       O  0.03756531  0.66611882  0.80659340    -0.85500
O1920       O  0.07785555  0.63060813  0.78038809    -0.85200
O1921       O  0.00357123  0.65039317  0.75588390    -0.71900
O1922       O  0.03882363  0.61894934  0.73420003    -0.84100
Zr1923     Zr  0.01115843  0.57846140  0.81696946     2.26400
Zr1924     Zr  0.99258267  0.65335673  0.80848602     2.06300
Zr1925     Zr  0.06714747  0.58696587  0.75999561     2.10000
Zr1926     Zr  0.06543718  0.63466328  0.83261490     1.78800
O1927       O  0.05851698  0.55268595  0.72212108    -0.92900
O1928       O  0.05720034  0.65346116  0.88251036    -0.40700
O1929       O  0.05460547  0.59327073  0.81087456    -0.77300
O1930       O  0.02079004  0.62233182  0.83713502    -0.96000
O1931       O  0.98207532  0.60897083  0.79070272    -0.89300
O1932       O  0.02248865  0.57333116  0.76461241    -0.92100
C1933       C  0.09414592  0.68688170  0.80632268     1.01600
C1934       C  0.08553729  0.63153835  0.70827237     1.14600
C1935       C  0.01371786  0.71540506  0.77986078     1.05300
O1936       O  0.96560123  0.68364079  0.83810851    -0.94300
O1937       O  0.97625149  0.63734398  0.85708040    -0.90000
O1938       O  0.98021014  0.59159006  0.85573205    -0.83200
C1939       C  0.97388489  0.61357470  0.86865973     1.12000
O1940       O  0.97951364  0.62840948  0.69205229    -0.96300
Zr1941     Zr  0.99396634  0.60470840  0.73857695     1.88900
O1942       O  0.98473205  0.54413721  0.79255378    -0.72900
O1943       O  0.95146257  0.65713415  0.78007173    -0.52200
O1944       O  0.94729071  0.61421033  0.73322543    -0.96900
O1945       O  0.00664969  0.58329407  0.69137642    -0.54100
O1946       O  0.97353457  0.55933854  0.74492716    -0.73400
C1947       C  0.97355249  0.54113453  0.76654872     0.98900
O1948       O  0.00493647  0.54192184  0.85436571    -0.62200
O1949       O  0.11013760  0.56556242  0.75707144    -0.57100
O1950       O  0.04961700  0.55321237  0.83552446    -0.93700
O1951       O  0.08222084  0.55607448  0.80056620    -0.92200
O1952       O  0.11291101  0.62954003  0.83482048    -0.92500
O1953       O  0.07873612  0.60558677  0.87562963    -0.91300
C1954       C  0.07295566  0.54823344  0.82636028     1.17800
H1955       H  0.09631299  0.63394052  0.77751390     0.33700
H1956       H  0.01951696  0.62240457  0.85905326     0.44600
H1957       H  0.02118958  0.55501904  0.75778317     0.38100
H1958       H  0.99343738  0.66337109  0.74392086     0.34600
H1959       H  0.07349574  0.66319305  0.88772905     0.26300
H1960       H  0.93791640  0.65142044  0.79485899     0.32300
H1961       H  0.93935782  0.60658961  0.75204196     0.38200
H1962       H  0.11850609  0.64045176  0.85237789     0.32700
H1963       H  0.11375127  0.56371843  0.73505739     0.31500
H1964       H  0.07164176  0.55604499  0.70601210     0.33200
H1965       H  0.00640292  0.56367445  0.69619249     0.32200
H1966       H  0.06297865  0.59474711  0.88041759     0.36200
H1967       H  0.00703035  0.55018089  0.87462635     0.28900
H1968       H  0.06968272  0.71065830  0.72533665     0.33100
H1969       H  0.99091839  0.64450316  0.69053669     0.36000
H1970       H  0.12264786  0.57941179  0.76407459     0.28600
H1971       H  0.98613710  0.53735364  0.85279393     0.41500
H1972       H  0.97766413  0.69147169  0.85336636     0.31500
H1973       H  0.04408565  0.66791063  0.87847463     0.39200
H1974       H  0.02541926  0.58762573  0.68878650     0.31000
H1975       H  0.94863211  0.67680736  0.77706001     0.31100
H1976       H  0.04645618  0.70109600  0.70440857     0.31300
Zr1977     Zr  0.19789240  0.75721235  0.88456063     2.17500
O1978       O  0.19841122  0.79568713  0.84889182    -0.51000
O1979       O  0.16286160  0.73431266  0.85863084    -0.74200
O1980       O  0.21524893  0.74188134  0.83634726    -0.81000
O1981       O  0.15740272  0.79155877  0.94701895    -0.82800
O1982       O  0.25477729  0.72074838  0.84314248    -0.78400
O1983       O  0.16542276  0.79215630  0.89583912    -0.90000
O1984       O  0.16576928  0.69090474  0.87639722    -0.76000
O1985       O  0.21841706  0.71405902  0.88651132    -0.85500
O1986       O  0.17422343  0.73217741  0.92254939    -0.85200
O1987       O  0.24394380  0.76345736  0.89428696    -0.71900
O1988       O  0.20335632  0.78011252  0.93133266    -0.84100
Zr1989     Zr  0.24607284  0.71987608  0.98222837     2.26400
Zr1990     Zr  0.26406769  0.71926559  0.89891215     2.06300
Zr1991     Zr  0.18133809  0.75408753  0.97028920     2.10000
Zr1992     Zr  0.19440048  0.68884613  0.92271293     1.78800
O1993       O  0.16109456  0.78576412  0.00472610    -0.92900
O1994       O  0.20976427  0.65107080  0.89298877    -0.40700
O1995       O  0.20085740  0.71029000  0.97137399    -0.77300
O1996       O  0.24020768  0.69406759  0.93676094    -0.96000
O1997       O  0.26907246  0.74456248  0.94404295    -0.89300
O1998       O  0.22605091  0.76305235  0.98008733    -0.92100
C1999       C  0.15643076  0.70941140  0.85798427     1.01600
C2000       C  0.15437909  0.80128749  0.91988246     1.14600
C2001       C  0.23535263  0.72927580  0.82626516     1.05300
O2002       O  0.27579552  0.67400413  0.88319386    -0.94300
O2003       O  0.30271304  0.70515230  0.93234476    -0.90000
O2004       O  0.29019079  0.70440877  0.98208028    -0.83200
C2005       C  0.30723207  0.70134832  0.96147347     1.12000
O2006       O  0.24862565  0.82493322  0.90371708    -0.96300
Zr2007     Zr  0.24843246  0.78748672  0.94070521     1.88900
O2008       O  0.27375991  0.75434397  0.51010070    -0.72900
O2009       O  0.30177950  0.74015513  0.87443693    -0.52200
O2010       O  0.29346267  0.79997417  0.92946235    -0.96900
O2011       O  0.23046472  0.82848675  0.96215176    -0.54100
O2012       O  0.27178076  0.79182456  0.98761179    -0.73400
C2013       C  0.27969816  0.77940491  0.50675929     0.98900
O2014       O  0.25161620  0.68038376  0.51135807    -0.62200
O2015       O  0.14234883  0.72812049  0.47256385    -0.57100
O2016       O  0.22868409  0.72694357  0.53013290    -0.93700
O2017       O  0.18885690  0.74686669  0.52435015    -0.92200
O2018       O  0.15155172  0.67443168  0.94059905    -0.92500
O2019       O  0.19596139  0.64643184  0.95191933    -0.91300
C2020       C  0.20775842  0.73679574  0.54092724     1.17800
H2021       H  0.15575057  0.73133419  0.91770228     0.33700
H2022       H  0.24814957  0.67644759  0.93973090     0.44600
H2023       H  0.22772371  0.77455929  0.49734177     0.38100
H2024       H  0.25164847  0.77365509  0.87764573     0.34600
H2025       H  0.19363950  0.64281120  0.88468309     0.26300
H2026       H  0.29457300  0.75565712  0.86237512     0.32300
H2027       H  0.29569808  0.79575683  0.90766106     0.38200
H2028       H  0.14655795  0.65950019  0.92707495     0.32700
H2029       H  0.13935328  0.72637221  0.49481239     0.31500
H2030       H  0.14398246  0.77921934  0.50539346     0.33200
H2031       H  0.23106791  0.82532896  0.98454669     0.32200
H2032       H  0.20705960  0.65030865  0.96994435     0.36200
H2033       H  0.23338582  0.67526554  0.51628976     0.28900
H2034       H  0.18993103  0.78917312  0.83002573     0.33100
H2035       H  0.23029409  0.82624891  0.89622451     0.36000
H2036       H  0.12693914  0.74148552  0.97189167     0.28600
H2037       H  0.25724453  0.66665684  0.49668727     0.41500
H2038       H  0.29360156  0.67595528  0.87469952     0.31500
H2039       H  0.21831181  0.65951142  0.87498908     0.39200
H2040       H  0.21156288  0.82811974  0.95690257     0.31000
H2041       H  0.31163971  0.74850157  0.89133998     0.31100
H2042       H  0.21705962  0.79805189  0.84350141     0.31300
Zr2043     Zr  0.19169268  0.71279380  0.73140063     2.17500
O2044       O  0.17720707  0.67626830  0.76534040    -0.51000
O2045       O  0.16535177  0.74577656  0.75585212    -0.74200
O2046       O  0.21183880  0.71886079  0.78160516    -0.81000
O2047       O  0.14528154  0.69633234  0.66518751    -0.82800
O2048       O  0.25570687  0.72573130  0.77715130    -0.78400
O2049       O  0.15077111  0.69169734  0.71685910    -0.90000
O2050       O  0.18171784  0.78593869  0.73869454    -0.76000
O2051       O  0.22503011  0.74596190  0.73291489    -0.85500
O2052       O  0.17859834  0.74620504  0.69375755    -0.85200
O2053       O  0.23173950  0.68896189  0.72269091    -0.71900
O2054       O  0.19024059  0.69182452  0.68304574    -0.84100
Zr2055     Zr  0.25090520  0.73265031  0.63673273     2.26400
Zr2056     Zr  0.26504592  0.72307153  0.72211699     2.06300
Zr2057     Zr  0.17865464  0.72544255  0.64493240     2.10000
Zr2058     Zr  0.21224689  0.77903820  0.69605184     1.78800
O2059       O  0.14691752  0.70727880  0.60898581    -0.92900
O2060       O  0.23828843  0.80728155  0.72950019    -0.40700
O2061       O  0.21217050  0.75853876  0.64649471    -0.77300
O2062       O  0.25285668  0.75666768  0.68407980    -0.96000
O2063       O  0.26313399  0.69985516  0.67485587    -0.89300
O2064       O  0.21728919  0.70003970  0.63528911    -0.92100
C2065       C  0.16657738  0.77147752  0.75584809     1.01600
C2066       C  0.13895663  0.68703708  0.69150455     1.14600
C2067       C  0.23461466  0.72387287  0.79299839     1.05300
O2068       O  0.29648818  0.75118293  0.74878452    -0.94300
O2069       O  0.30589485  0.73352710  0.69479570    -0.90000
O2070       O  0.29723207  0.73577090  0.64365985    -0.83200
C2071       C  0.31266130  0.73671758  0.66666754     1.12000
O2072       O  0.21157569  0.63088359  0.70598145    -0.96300
Zr2073     Zr  0.22901469  0.66740100  0.67420698     1.88900
O2074       O  0.26720033  0.69469177  0.60738072    -0.72900
O2075       O  0.28779130  0.68243634  0.74035159    -0.52200
O2076       O  0.26504917  0.63878806  0.69250942    -0.96900
O2077       O  0.19952134  0.63674237  0.64802706    -0.54100
O2078       O  0.25229222  0.65567497  0.62927221    -0.73400
C2079       C  0.26483778  0.66884823  0.60889136     0.98900
O2080       O  0.27075792  0.77035431  0.60862181    -0.62200
O2081       O  0.15026518  0.76508139  0.64280803    -0.57100
O2082       O  0.23066531  0.73776935  0.58693008    -0.93700
O2083       O  0.18664163  0.73280316  0.58995826    -0.92200
O2084       O  0.17913621  0.80973924  0.67463138    -0.92500
O2085       O  0.22989410  0.81864467  0.66967951    -0.91300
C2086       C  0.20776842  0.73644426  0.57473781     1.17800
H2087       H  0.16149647  0.75356008  0.69785595     0.33700
H2088       H  0.26643669  0.77015964  0.68278691     0.44600
H2089       H  0.21572933  0.69166724  0.61566036     0.38100
H2090       H  0.23498757  0.67580527  0.73893249     0.34600
H2091       H  0.22551272  0.81552868  0.74337936     0.26300
H2092       H  0.30324551  0.68106386  0.72700525     0.32300
H2093       H  0.28033933  0.64443082  0.68022603     0.38200
H2094       H  0.17243182  0.81977326  0.69222738     0.32700
H2095       H  0.15016480  0.77097190  0.62105759     0.31500
H2096       H  0.13454505  0.72229267  0.60437772     0.33200
H2097       H  0.21025308  0.62773836  0.63253443     0.32200
H2098       H  0.23333343  0.81254999  0.64871634     0.36200
H2099       H  0.25593079  0.78068846  0.59939926     0.28900
H2100       H  0.16942210  0.68539969  0.78296139     0.33100
H2101       H  0.19626569  0.63895514  0.71610145     0.36000
H2102       H  0.13244842  0.75791633  0.64636533     0.28600
H2103       H  0.27766977  0.78237328  0.62454719     0.41500
H2104       H  0.30986651  0.73838852  0.75705396     0.31500
H2105       H  0.24840061  0.79441957  0.74267196     0.39200
H2106       H  0.18752647  0.64872835  0.63603060     0.31000
H2107       H  0.29511577  0.68721709  0.76052518     0.31100
H2108       H  0.19349852  0.66783990  0.77354206     0.31300
Zr2109     Zr  0.57533008  0.96821829  0.70658436     2.17500
O2110       O  0.54387992  0.99308417  0.67438746    -0.51000
O2111       O  0.54317808  0.99242318  0.73758941    -0.74200
O2112       O  0.53994333  0.93718820  0.69987865    -0.81000
O2113       O  0.63331852  0.99973045  0.66101879    -0.82800
O2114       O  0.54455221  0.90086354  0.73245010    -0.78400
O2115       O  0.59048892  0.98732895  0.65761566    -0.90000
O2116       O  0.55565515  0.98486176  0.78665634    -0.76000
O2117       O  0.57414593  0.94688802  0.75560123    -0.85500
O2118       O  0.60478877  0.99507485  0.73550122    -0.85200
O2119       O  0.58726448  0.92139774  0.69935615    -0.71900
O2120       O  0.61724146  0.96091693  0.69182722    -0.84100
Zr2121     Zr  0.66079439  0.92143988  0.75212234     2.26400
Zr2122     Zr  0.58948599  0.90149046  0.75016279     2.06300
Zr2123     Zr  0.64758900  0.98843245  0.71296446     2.10000
Zr2124     Zr  0.60351288  0.97280924  0.78454087     1.78800
O2125       O  0.67317563  0.02015427  0.68214333    -0.92900
O2126       O  0.58768934  0.95418532  0.83288447    -0.40700
O2127       O  0.64693506  0.96729540  0.76224537    -0.77300
O2128       O  0.61998022  0.92712324  0.77925809    -0.96000
O2129       O  0.62979601  0.89685570  0.72348780    -0.89300
O2130       O  0.66135332  0.94306449  0.70322108    -0.92100
C2131       C  0.53825523  0.99215860  0.76631103     1.01600
C2132       C  0.61188278  0.99653783  0.64604030     1.14600
C2133       C  0.53218764  0.91507066  0.71222691     1.05300
O2134       O  0.56516405  0.89455133  0.79722903    -0.94300
O2135       O  0.61376934  0.86745955  0.78056872    -0.90000
O2136       O  0.65607184  0.88162715  0.78290948    -0.83200
C2137       C  0.63780147  0.86510680  0.78928416     1.12000
O2138       O  0.60456686  0.93186278  0.62853524    -0.96300
Zr2139     Zr  0.62868214  0.91925837  0.67506406     1.88900
O2140       O  0.68121081  0.88451013  0.72168904    -0.72900
O2141       O  0.57974933  0.85649575  0.73182611    -0.52200
O2142       O  0.60667981  0.87901775  0.65647686    -0.96900
O2143       O  0.65771733  0.93203118  0.63338368    -0.54100
O2144       O  0.66024205  0.88308299  0.67579447    -0.73400
C2145       C  0.67722144  0.87413444  0.69506939     0.98900
O2146       O  0.68980833  0.92134261  0.79676673    -0.62200
O2147       O  0.64496574  0.03143315  0.73882062    -0.57100
O2148       O  0.70294418  0.94291491  0.74853565    -0.93700
O2149       O  0.69482287  0.98379067  0.72584290    -0.92200
O2150       O  0.60685298  0.02106392  0.79329197    -0.92500
O2151       O  0.62996218  0.98182476  0.82973232    -0.91300
C2152       C  0.71032467  0.96593921  0.73813241     1.17800
H2153       H  0.59893435  0.01364430  0.73553552     0.33700
H2154       H  0.62172328  0.91918799  0.79953050     0.44600
H2155       H  0.67822699  0.94208224  0.69352085     0.38100
H2156       H  0.57589382  0.91149992  0.68593121     0.34600
H2157       H  0.57930488  0.96961455  0.84300373     0.26300
H2158       H  0.56600687  0.84944700  0.74563010     0.32300
H2159       H  0.61682636  0.87354597  0.63848288     0.38200
H2160       H  0.59022058  0.02584246  0.80328809     0.32700
H2161       H  0.66342509  0.03648024  0.74274858     0.31500
H2162       H  0.68613968  0.00888775  0.67154355     0.33200
H2163       H  0.67487124  0.92378324  0.63884536     0.32200
H2164       H  0.64755027  0.97464264  0.82503934     0.36200
H2165       H  0.67814039  0.91966915  0.81462983     0.28900
H2166       H  0.54476977  0.01199714  0.68117600     0.33100
H2167       H  0.61037477  0.91911247  0.61287402     0.36000
H2168       H  0.63882710  0.04453896  0.72287658     0.28600
H2169       H  0.69963863  0.90408145  0.79648099     0.41500
H2170       H  0.55003053  0.88323036  0.79148092     0.31500
H2171       H  0.57289649  0.94240760  0.82714179     0.39200
H2172       H  0.66043331  0.95166842  0.63561024     0.31000
H2173       H  0.57074772  0.85943649  0.71189408     0.31100
H2174       H  0.52633749  0.98674292  0.68072353     0.31300
Zr2175     Zr  0.92581778  0.94567034  0.72982777     2.17500
O2176       O  0.95801362  0.92133953  0.76035133    -0.51000
O2177       O  0.95942182  0.97524808  0.71193137    -0.74200
O2178       O  0.93545002  0.92285824  0.68400366    -0.81000
O2179       O  0.89055647  0.96056922  0.78487804    -0.82800
O2180       O  0.94302498  0.90259294  0.64336054    -0.78400
O2181       O  0.93027771  0.97354553  0.77423101    -0.90000
O2182       O  0.93930209  0.99779247  0.67221884    -0.76000
O2183       O  0.91627397  0.94840656  0.67664917    -0.85500
O2184       O  0.89599446  0.98320932  0.72253275    -0.85200
O2185       O  0.90905397  0.90240431  0.71399783    -0.71900
O2186       O  0.88689454  0.93535964  0.75812430    -0.84100
Zr2187     Zr  0.83048301  0.93190604  0.68371960     2.26400
Zr2188     Zr  0.89714694  0.90626018  0.65925373     2.06300
Zr2189     Zr  0.85597932  0.97154865  0.74869356     2.10000
Zr2190     Zr  0.89042426  0.98611525  0.66879366     1.78800
O2191       O  0.84116251  0.98812499  0.79754063    -0.92900
O2192       O  0.90482971  0.98442633  0.61606281    -0.40700
O2193       O  0.84965231  0.97495261  0.69490763    -0.77300
O2194       O  0.86846302  0.94466555  0.65366338    -0.96000
O2195       O  0.86013243  0.89504245  0.68979682    -0.89300
O2196       O  0.83916772  0.92835356  0.73676106    -0.92100
C2197       C  0.95992179  0.99175568  0.68914819     1.01600
C2198       C  0.90888097  0.97750989  0.78796042     1.14600
C2199       C  0.95249660  0.91533904  0.66530761     1.05300
O2200       O  0.90606868  0.91165090  0.60491032    -0.94300
O2201       O  0.86248688  0.88664934  0.62831974    -0.90000
O2202       O  0.82333568  0.90581460  0.63971763    -0.83200
C2203       C  0.83770233  0.88992266  0.62481125     1.12000
O2204       O  0.90344009  0.87513560  0.77919931    -0.96300
Zr2205     Zr  0.87089207  0.89282005  0.74297228     1.88900
O2206       O  0.80429799  0.89335052  0.70503659    -0.72900
O2207       O  0.90742047  0.85841717  0.66614395    -0.52200
O2208       O  0.88036854  0.84605345  0.73100311    -0.96900
O2209       O  0.85585300  0.88820803  0.79545380    -0.54100
O2210       O  0.82994365  0.87071657  0.73993096    -0.73400
C2211       C  0.80858855  0.87428317  0.72527094     0.98900
O2212       O  0.80089067  0.95325051  0.64610792    -0.62200
O2213       O  0.85448756  0.02016180  0.73928982    -0.57100
O2214       O  0.79315158  0.95357652  0.70597856    -0.93700
O2215       O  0.80749179  0.97157291  0.75030322    -0.92200
O2216       O  0.88834641  0.03418148  0.67873030    -0.92500
O2217       O  0.86101217  0.01202804  0.63513062    -0.91300
C2218       C  0.78922387  0.96537194  0.73115910     1.17800
H2219       H  0.90342615  0.99976971  0.72980215     0.33700
H2220       H  0.86308307  0.94671444  0.63252635     0.44600
H2221       H  0.82376620  0.92413252  0.74851476     0.38100
H2222       H  0.92151225  0.88796425  0.71819916     0.34600
H2223       H  0.91519055  0.00110608  0.61293957     0.26300
H2224       H  0.90678583  0.85121320  0.64524980     0.32300
H2225       H  0.87290228  0.83534186  0.74816048     0.38200
H2226       H  0.89876991  0.04276270  0.66224100     0.32700
H2227       H  0.84847407  0.02254365  0.71784860     0.31500
H2228       H  0.83269383  0.97235593  0.80756225     0.33200
H2229       H  0.84865465  0.86970267  0.79721378     0.32200
H2230       H  0.84367988  0.01068238  0.64497934     0.36200
H2231       H  0.79943812  0.97231299  0.65224311     0.28900
H2232       H  0.97242385  0.93453812  0.76181594     0.33100
H2233       H  0.91463788  0.89086501  0.78364583     0.36000
H2234       H  0.83942876  0.02638457  0.75135876     0.28600
H2235       H  0.81097189  0.95438028  0.62692984     0.41500
H2236       H  0.89179091  0.92329168  0.59656871     0.31500
H2237       H  0.91796134  0.96967133  0.61606225     0.39200
H2238       H  0.84036773  0.90021295  0.79650106     0.31000
H2239       H  0.92618139  0.85766151  0.67202551     0.31100
H2240       H  0.96446059  0.90745940  0.74640814     0.31300
Zr2241     Zr  0.59295952  0.51504648  0.97854176     2.17500
O2242       O  0.56131539  0.48976114  0.51431650    -0.51000
O2243       O  0.56019753  0.51112346  0.93769218    -0.74200
O2244       O  0.56162491  0.54375303  0.00274760    -0.81000
O2245       O  0.63680496  0.45899756  0.00183819    -0.82800
O2246       O  0.57575900  0.58725150  0.99869156    -0.78400
O2247       O  0.59827035  0.46673601  0.97929400    -0.90000
O2248       O  0.57956620  0.52343722  0.89325725    -0.76000
O2249       O  0.59749620  0.55264039  0.94443324    -0.85500
O2250       O  0.62191539  0.49866857  0.94064823    -0.85200
O2251       O  0.61271724  0.54943894  0.00959164    -0.71900
O2252       O  0.63328221  0.50286623  0.00488744    -0.84100
Zr2253     Zr  0.68643437  0.55828756  0.96303303     2.26400
Zr2254     Zr  0.61822640  0.58688211  0.97423583     2.06300
Zr2255     Zr  0.66267211  0.48670977  0.96682962     2.10000
Zr2256     Zr  0.62590228  0.53616588  0.90654254     1.78800
O2257       O  0.68041924  0.44174997  0.97775551    -0.92900
O2258       O  0.60939361  0.57365782  0.87481089    -0.40700
O2259       O  0.66749129  0.52390742  0.93148605    -0.77300
O2260       O  0.64687359  0.57144124  0.93529562    -0.96000
O2261       O  0.65746657  0.57389720  0.00048993    -0.89300
O2262       O  0.68124168  0.52132703  0.99777011    -0.92100
C2263       C  0.55947408  0.51506277  0.90863165     1.01600
C2264       C  0.61202401  0.45563737  0.00030265     1.14600
C2265       C  0.55988728  0.56894340  0.00801573     1.05300
O2266       O  0.59528236  0.61217208  0.93381357    -0.94300
O2267       O  0.64954205  0.62381242  0.96701278    -0.90000
O2268       O  0.68956840  0.60593663  0.95660656    -0.83200
C2269       C  0.67393149  0.62566022  0.96025586     1.12000
O2270       O  0.62662766  0.51418022  0.57973353    -0.96300
Zr2271     Zr  0.65222713  0.53714494  0.03521360     1.88900
O2272       O  0.70767373  0.58062529  0.00685142    -0.72900
O2273       O  0.61262836  0.62519852  0.00766603    -0.52200
O2274       O  0.63307696  0.56771691  0.07173691    -0.96900
O2275       O  0.67942104  0.50831122  0.57244664    -0.54100
O2276       O  0.68567890  0.56890848  0.04997473    -0.73400
C2277       C  0.70322355  0.58239003  0.03572549     0.98900
O2278       O  0.71685578  0.56813999  0.92171273    -0.62200
O2279       O  0.66076698  0.46209727  0.91931795    -0.57100
O2280       O  0.72528412  0.53013446  0.96501761    -0.93700
O2281       O  0.71129913  0.48660585  0.96864368    -0.92200
O2282       O  0.63054704  0.49864692  0.87203278    -0.92500
O2283       O  0.65382135  0.54775783  0.86345383    -0.91300
C2284       C  0.72947361  0.50466994  0.96780762     1.17800
H2285       H  0.61449632  0.48361796  0.92993753     0.33700
H2286       H  0.65070612  0.58624165  0.92131047     0.44600
H2287       H  0.69707331  0.51620185  0.00855092     0.38100
H2288       H  0.60233198  0.55387048  0.02699203     0.34600
H2289       H  0.60306857  0.56518751  0.85585756     0.26300
H2290       H  0.59671065  0.63479733  0.00011199     0.32300
H2291       H  0.64287597  0.56590921  0.59589114     0.38200
H2292       H  0.61845178  0.50303355  0.85479943     0.32700
H2293       H  0.67875974  0.45510244  0.91658130     0.31500
H2294       H  0.68842970  0.44287249  0.99837364     0.33200
H2295       H  0.69729412  0.51587734  0.57091633     0.32200
H2296       H  0.66459795  0.56302144  0.87054021     0.36200
H2297       H  0.71601154  0.55207439  0.90868724     0.28900
H2298       H  0.54394669  0.49443054  0.50537806     0.33100
H2299       H  0.60828839  0.51502150  0.57217888     0.36000
H2300       H  0.65016477  0.44587178  0.92412289     0.28600
H2301       H  0.70832726  0.58259443  0.90915170     0.41500
H2302       H  0.59747294  0.63133921  0.93921743     0.31500
H2303       H  0.59321032  0.57953140  0.88501991     0.39200
H2304       H  0.68020028  0.49112157  0.56137200     0.31000
H2305       H  0.60777043  0.61737954  0.02781908     0.31100
H2306       H  0.56179559  0.49835369  0.53451446     0.31300
Zr2307     Zr  0.94071578  0.52495750  0.95462370     2.17500
O2308       O  0.96208840  0.51398978  0.90726343    -0.51000
O2309       O  0.97583618  0.51280828  0.98805891    -0.74200
O2310       O  0.97465160  0.55777669  0.94328646    -0.81000
O2311       O  0.91003107  0.46228154  0.97362614    -0.82800
O2312       O  0.95612689  0.58692968  0.97310412    -0.78400
O2313       O  0.94282356  0.47655884  0.94544678    -0.90000
O2314       O  0.96673805  0.52707637  0.53239005    -0.76000
O2315       O  0.93569662  0.56115526  0.98960135    -0.85500
O2316       O  0.91711231  0.50648145  0.99728783    -0.85200
O2317       O  0.91824363  0.56214496  0.92816401    -0.71900
O2318       O  0.89843074  0.51129391  0.93635941    -0.84100
Zr2319     Zr  0.84696112  0.56287909  0.98206545     2.26400
Zr2320     Zr  0.91048106  0.59702970  0.96525700     2.06300
Zr2321     Zr  0.87393103  0.49339701  0.97914597     2.10000
Zr2322     Zr  0.91768389  0.54030751  0.53133648     1.78800
O2323       O  0.85786044  0.45117996  0.95856977    -0.92900
O2324       O  0.93759383  0.57770634  0.55818201    -0.40700
O2325       O  0.87088729  0.52984983  0.01331205    -0.77300
O2326       O  0.89043320  0.57588892  0.50704020    -0.96000
O2327       O  0.87189541  0.58132254  0.94186566    -0.89300
O2328       O  0.85304835  0.52743694  0.94732019    -0.92100
C2329       C  0.98392325  0.51674242  0.51380301     1.01600
C2330       C  0.92192059  0.46273168  0.94841029     1.14600
C2331       C  0.96983673  0.58215303  0.94988471     1.05300
O2332       O  0.93629410  0.63594480  0.48104229    -0.94300
O2333       O  0.88158906  0.62932696  0.48234823    -0.90000
O2334       O  0.84239993  0.60896872  0.49087110    -0.83200
C2335       C  0.85704423  0.62965001  0.48920053     1.12000
O2336       O  0.90078663  0.51982055  0.86874598    -0.96300
Zr2337     Zr  0.87824845  0.54620543  0.90675740     1.88900
O2338       O  0.82461876  0.58801836  0.93853513    -0.72900
O2339       O  0.91485857  0.62308096  0.91778901    -0.52200
O2340       O  0.89669115  0.57324505  0.86509246    -0.96900
O2341       O  0.84573868  0.51998341  0.87899356    -0.54100
O2342       O  0.84442436  0.57843288  0.89375746    -0.70200
C2343       C  0.82765475  0.59129337  0.90925699     0.98900
O2344       O  0.82196713  0.56861313  0.52636622    -0.62200
O2345       O  0.86717542  0.47648668  0.03106358    -0.57100
O2346       O  0.80984450  0.53217656  0.98225820    -0.93700
O2347       O  0.82575182  0.48932384  0.97952828    -0.92200
O2348       O  0.91747323  0.50133451  0.56627236    -0.92500
O2349       O  0.89818077  0.54825194  0.58082989    -0.91300
C2350       C  0.80679318  0.50654186  0.98049923     1.17800
H2351       H  0.92688587  0.49224747  0.00773627     0.33700
H2352       H  0.88689663  0.58936884  0.52205333     0.44600
H2353       H  0.83697578  0.52143819  0.93806652     0.38100
H2354       H  0.92891703  0.56892296  0.91166915     0.34600
H2355       H  0.95472690  0.57067166  0.56563816     0.26300
H2356       H  0.90258904  0.61453094  0.90332628     0.32300
H2357       H  0.88264289  0.57431516  0.84935871     0.38200
H2358       H  0.93342201  0.50341466  0.57904777     0.32700
H2359       H  0.85319468  0.46280639  0.02915583     0.31500
H2360       H  0.86163292  0.43738897  0.97474792     0.33200
H2361       H  0.82846123  0.52719778  0.88490578     0.32200
H2362       H  0.87911731  0.54616782  0.57727281     0.36200
H2363       H  0.82259082  0.55100310  0.53753210     0.28900
H2364       H  0.98112737  0.51524769  0.91147364     0.33100
H2365       H  0.88989151  0.52118311  0.84994183     0.36000
H2366       H  0.88317109  0.46585558  0.03601885     0.28600
H2367       H  0.83194596  0.58082792  0.53973877     0.41500
H2368       H  0.93312833  0.63670769  0.50326618     0.31500
H2369       H  0.94204950  0.59104989  0.54189948     0.39200
H2370       H  0.84659236  0.50165061  0.88845898     0.31000
H2371       H  0.90665427  0.64072483  0.92200136     0.31100
H2372       H  0.95794984  0.52952485  0.89344063     0.31300
Zr2373     Zr  0.76526583  0.71553801  0.88897339     2.17500
O2374       O  0.80460356  0.71028639  0.92067910    -0.51000
O2375       O  0.73422701  0.68930933  0.91946151    -0.74200
O2376       O  0.75899453  0.73557823  0.93745031    -0.81000
O2377       O  0.79224345  0.66328930  0.83728123    -0.82800
O2378       O  0.73500374  0.77411884  0.93204124    -0.78400
O2379       O  0.78686445  0.67272390  0.88754023    -0.90000
O2380       O  0.69631667  0.68641262  0.89205021    -0.76000
O2381       O  0.72131785  0.73013223  0.88399327    -0.85500
O2382       O  0.74693697  0.69054807  0.84810796    -0.85200
O2383       O  0.76887045  0.76343355  0.88057660    -0.71900
O2384       O  0.79216801  0.72689011  0.84576135    -0.84100
Zr2385     Zr  0.72986100  0.76509735  0.79137230     2.26400
Zr2386     Zr  0.72408650  0.77765111  0.87672293     2.06300
Zr2387     Zr  0.77342417  0.70159267  0.80494544     2.10000
Zr2388     Zr  0.70338582  0.70590762  0.84230402     1.78800
O2389       O  0.81858908  0.69915931  0.78789611    -0.92900
O2390       O  0.65707958  0.71125576  0.85368898    -0.40700
O2391       O  0.72889959  0.71688144  0.79855182    -0.77300
O2392       O  0.70425567  0.75340196  0.83519456    -0.96000
O2393       O  0.74845545  0.79018702  0.83193717    -0.89300
O2394       O  0.77418763  0.74968481  0.79543245    -0.92100
C2395       C  0.71018176  0.68237318  0.91610501     1.01600
C2396       C  0.79433906  0.65738239  0.86632095     1.14600
C2397       C  0.74749544  0.75611890  0.94829950     1.05300
O2398       O  0.68446287  0.77710491  0.90710255    -0.94300
O2399       O  0.69123234  0.80529065  0.85046789    -0.90000
O2400       O  0.69497626  0.79774241  0.79947834    -0.83200
C2401       C  0.68410018  0.80867219  0.82248029     1.12000
O2402       O  0.83049149  0.77327120  0.86951162    -0.96300
Zr2403     Zr  0.79261135  0.77506572  0.83510700     1.88900
O2404       O  0.75043931  0.80400049  0.76760095    -0.72900
O2405       O  0.73420026  0.82406317  0.88951882    -0.52200
O2406       O  0.79692329  0.81865913  0.85923057    -0.96900
O2407       O  0.83442449  0.77051739  0.80920565    -0.54100
O2408       O  0.79008079  0.80741016  0.79125032    -0.73400
C2409       C  0.77299335  0.81477903  0.77074733     0.98900
O2410       O  0.69565932  0.76114812  0.75248938    -0.62200
O2411       O  0.76132303  0.66043347  0.77897181    -0.57100
O2412       O  0.74384889  0.74939138  0.74268608    -0.93700
O2413       O  0.76783674  0.71061783  0.74912960    -0.92200
O2414       O  0.70243576  0.65802101  0.83061744    -0.92500
O2415       O  0.67243187  0.70275969  0.79984542    -0.91300
C2416       C  0.75711977  0.72964818  0.73243741     1.17800
H2417       H  0.74635236  0.67142690  0.85272935     0.33700
H2418       H  0.68603525  0.75805525  0.83240830     0.44600
H2419       H  0.78386854  0.75390717  0.77712447     0.38100
H2420       H  0.77750426  0.77171854  0.89768734     0.34600
H2421       H  0.65062577  0.69262660  0.85729723     0.26300
H2422       H  0.72544684  0.82679333  0.90928308     0.32300
H2423       H  0.80957591  0.82877601  0.84641695     0.38200
H2424       H  0.69022595  0.64990720  0.84561805     0.32700
H2425       H  0.77753278  0.64940604  0.77903849     0.31500
H2426       H  0.82916314  0.69785148  0.80694881     0.33200
H2427       H  0.83900198  0.78905880  0.80225951     0.32200
H2428       H  0.68230297  0.69390023  0.78348686     0.36200
H2429       H  0.67943624  0.75720516  0.76392144     0.28900
H2430       H  0.79874945  0.70118162  0.93978051     0.33100
H2431       H  0.84058949  0.78992489  0.86515436     0.36000
H2432       H  0.74958610  0.65081396  0.79337585     0.28600
H2433       H  0.69311861  0.77961912  0.74380649     0.41500
H2434       H  0.67684524  0.75902257  0.90389735     0.31500
H2435       H  0.65672011  0.71955431  0.87402370     0.39200
H2436       H  0.83035217  0.76086465  0.79021285     0.31000
H2437       H  0.75311800  0.82382439  0.89465369     0.31100
H2438       H  0.80932067  0.72879866  0.92674294     0.31300
Zr2439     Zr  0.75078755  0.71158480  0.54412936     2.17500
O2440       O  0.70911868  0.69514352  0.01561469    -0.51000
O2441       O  0.78847034  0.68935807  0.51997514    -0.74200
O2442       O  0.74559232  0.73295527  0.99451074    -0.81000
O2443       O  0.73770803  0.65787422  0.60381730    -0.82800
O2444       O  0.75305643  0.77803360  0.99661236    -0.78400
O2445       O  0.73871214  0.66528948  0.55235699    -0.90000
O2446       O  0.82573577  0.69999232  0.54585573    -0.76000
O2447       O  0.78694794  0.74111335  0.54406669    -0.85500
O2448       O  0.77740669  0.69689033  0.58597935    -0.85200
O2449       O  0.73069473  0.75519002  0.54974636    -0.71900
O2450       O  0.72312255  0.71603000  0.58810078    -0.84100
Zr2451     Zr  0.76969227  0.77536061  0.63641055     2.26400
Zr2452     Zr  0.76748102  0.78467774  0.54888070     2.06300
Zr2453     Zr  0.75024871  0.70029642  0.62961208     2.10000
Zr2454     Zr  0.81306769  0.72739607  0.58730148     1.78800
O2455       O  0.71063434  0.68169583  0.65217212    -0.92900
O2456       O  0.84863679  0.75178345  0.56245294    -0.40700
O2457       O  0.78709419  0.73050589  0.63207651    -0.77300
O2458       O  0.79566576  0.77151960  0.59138319    -0.96000
O2459       O  0.74268787  0.79038406  0.59465438    -0.89300
O2460       O  0.73326572  0.74527542  0.63661338    -0.92100
C2461       C  0.81346159  0.68817055  0.52458621     1.01600
C2462       C  0.73498646  0.65020303  0.57591384     1.14600
C2463       C  0.74821109  0.75636607  0.98193985     1.05300
O2464       O  0.80443376  0.79542510  0.51612677    -0.94300
O2465       O  0.78787121  0.82420764  0.56847892    -0.90000
O2466       O  0.78859521  0.81868028  0.62041635    -0.83200
C2467       C  0.79377700  0.83160800  0.59537545     1.12000
O2468       O  0.66788541  0.74593565  0.56761400    -0.96300
Zr2469     Zr  0.70620484  0.76119083  0.59599938     1.88900
O2470       O  0.73789211  0.80567008  0.65820760    -0.72900
O2471       O  0.74051920  0.82275782  0.53136197    -0.52200
O2472       O  0.68596286  0.79857410  0.56714677    -0.96900
O2473       O  0.67226563  0.74265814  0.62907107    -0.54100
O2474       O  0.69930622  0.79723275  0.63403275    -0.73400
C2475       C  0.71342817  0.81007412  0.65364474     0.98900
O2476       O  0.80478956  0.79029858  0.67033577    -0.62200
O2477       O  0.77889147  0.66655718  0.65382641    -0.57100
O2478       O  0.76487031  0.75387751  0.68689944    -0.93700
O2479       O  0.75578279  0.70890588  0.68398592    -0.92200
O2480       O  0.83226232  0.68666794  0.61047860    -0.92500
O2481       O  0.84833260  0.73848962  0.62265421    -0.91300
C2482       C  0.76011534  0.73044728  0.69902005     1.17800
H2483       H  0.78359525  0.67864543  0.58345717     0.33700
H2484       H  0.81095423  0.78288089  0.59228678     0.44600
H2485       H  0.72362234  0.74623291  0.65540126     0.38100
H2486       H  0.71916262  0.75900776  0.53255763     0.34600
H2487       H  0.86271740  0.73820221  0.56021322     0.26300
H2488       H  0.73688082  0.83307266  0.54995263     0.32300
H2489       H  0.69158645  0.79639160  0.54578848     0.38200
H2490       H  0.84934429  0.68453604  0.60030181     0.32700
H2491       H  0.76700817  0.65173001  0.66011094     0.31500
H2492       H  0.70643920  0.69382288  0.66910464     0.33200
H2493       H  0.67652547  0.74904945  0.64977887     0.32200
H2494       H  0.84010903  0.75050099  0.63757382     0.36200
H2495       H  0.80995068  0.77421906  0.68283388     0.28900
H2496       H  0.71656640  0.68903719  0.99617241     0.33100
H2497       H  0.65312227  0.75718899  0.57454209     0.36000
H2498       H  0.78916307  0.65905932  0.63694410     0.28600
H2499       H  0.82002764  0.79352662  0.65695429     0.41500
H2500       H  0.79977126  0.81295727  0.50616701     0.31500
H2501       H  0.84219444  0.75542747  0.54135579     0.39200
H2502       H  0.67588959  0.72301504  0.63013605     0.31000
H2503       H  0.75251607  0.83442535  0.51936109     0.31100
H2504       H  0.69865036  0.71139198  0.00994933     0.31300
Zr2505     Zr  0.53576286  0.31028257  0.61707986     2.17500
O2506       O  0.54743179  0.27260109  0.65152847    -0.51000
O2507       O  0.57850299  0.29502322  0.59478807    -0.74200
O2508       O  0.51316330  0.26897846  0.60428902    -0.81000
O2509       O  0.57673899  0.35381340  0.66198838    -0.82800
O2510       O  0.49460587  0.27874276  0.55822909    -0.78400
O2511       O  0.54604145  0.32246792  0.66838268    -0.90000
O2512       O  0.57041378  0.30442336  0.54564426    -0.76000
O2513       O  0.52842416  0.31490199  0.56360975    -0.85500
O2514       O  0.56527041  0.34551659  0.60241896    -0.85200
O2515       O  0.48977512  0.32334010  0.61220894    -0.71900
O2516       O  0.52174043  0.34963353  0.64504360    -0.84100
Zr2517     Zr  0.50059507  0.40383817  0.56833946     2.26400
Zr2518     Zr  0.48343808  0.32750643  0.55808552     2.06300
Zr2519     Zr  0.55146112  0.38452137  0.63032696     2.10000
Zr2520     Zr  0.55717270  0.35023449  0.54856790     1.78800
O2521       O  0.53736212  0.40881112  0.67514397    -0.92900
O2522       O  0.55401275  0.33938073  0.49466916    -0.40700
O2523       O  0.54280138  0.38645989  0.57761951    -0.77300
O2524       O  0.51296047  0.36348968  0.54086440    -0.96000
O2525       O  0.47093429  0.36879247  0.58316100    -0.89300
O2526       O  0.50776978  0.40017902  0.62224891    -0.92100
C2527       C  0.58509690  0.29449550  0.56637138     1.01600
C2528       C  0.56865704  0.33173402  0.67379533     1.14600
C2529       C  0.50346780  0.26185266  0.57869182     1.05300
O2530       O  0.46272631  0.30182384  0.51769931    -0.94300
O2531       O  0.47003129  0.35125389  0.51163564    -0.90000
O2532       O  0.46394153  0.38735561  0.53871746    -0.83200
C2533       C  0.46706353  0.37666099  0.51296762     1.12000
O2534       O  0.45696921  0.33542984  0.67387248    -0.96300
Zr2535     Zr  0.47739313  0.36587974  0.63679550     1.88900
O2536       O  0.47473789  0.43623541  0.59671220    -0.72900
O2537       O  0.43972810  0.31952380  0.57795092    -0.52200
O2538       O  0.43064055  0.35996452  0.62762475    -0.96900
O2539       O  0.48290572  0.37641044  0.69055267    -0.54100
O2540       O  0.45929504  0.41340190  0.63830441    -0.73400
C2541       C  0.46158986  0.43526760  0.62154896     0.98900
O2542       O  0.49382934  0.43989633  0.53058127    -0.62200
O2543       O  0.59054801  0.40785460  0.64812974    -0.57100
O2544       O  0.54112791  0.42931410  0.55935451    -0.93700
O2545       O  0.57021651  0.41987579  0.59808982    -0.92200
O2546       O  0.60405716  0.35704014  0.55573536    -0.92500
O2547       O  0.57306397  0.38497258  0.51323075    -0.91300
C2548       C  0.56361339  0.43161535  0.57277149     1.17800
H2549       H  0.58343009  0.34152366  0.60701758     0.33700
H2550       H  0.51329033  0.36695034  0.51915772     0.44600
H2551       H  0.50644395  0.41696712  0.63281034     0.38100
H2552       H  0.47899693  0.30886121  0.62010474     0.34600
H2553       H  0.56342841  0.32845321  0.98769779     0.26300
H2554       H  0.42777135  0.32639617  0.56159269     0.32300
H2555       H  0.42520623  0.37584600  0.61493012     0.38200
H2556       H  0.60541958  0.37433730  0.56653922     0.32700
H2557       H  0.59123680  0.40456895  0.67050683     0.31500
H2558       H  0.54414685  0.42737016  0.67207230     0.33200
H2559       H  0.48489770  0.39627745  0.69081948     0.32200
H2560       H  0.55324331  0.39457156  0.00287795     0.36200
H2561       H  0.47461745  0.44010823  0.52747745     0.28900
H2562       H  0.55374333  0.25802893  0.63832730     0.33100
H2563       H  0.46791946  0.31889423  0.67395415     0.36000
H2564       H  0.60541115  0.39730298  0.64020288     0.28600
H2565       H  0.49750221  0.45667025  0.54169642     0.41500
H2566       H  0.47689722  0.29821682  0.50304523     0.31500
H2567       H  0.53996275  0.32568657  0.49363766     0.39200
H2568       H  0.50043063  0.36925997  0.69636327     0.31000
H2569       H  0.43766103  0.29965733  0.57774014     0.31100
H2570       H  0.53070524  0.26590440  0.66001738     0.31300
Zr2571     Zr  0.56079625  0.14020857  0.52873521     2.17500
O2572       O  0.56013353  0.17912537  0.99883217    -0.51000
O2573       O  0.59725599  0.16631029  0.55209364    -0.74200
O2574       O  0.53075845  0.17662480  0.54134097    -0.81000
O2575       O  0.60885513  0.10308474  0.48302407    -0.82800
O2576       O  0.51086148  0.16319257  0.58520229    -0.78400
O2577       O  0.57455234  0.13052796  0.47789800    -0.90000
O2578       O  0.61189092  0.14334873  0.59438048    -0.76000
O2579       O  0.55888428  0.13191733  0.58225223    -0.85500
O2580       O  0.59552567  0.10879334  0.53978660    -0.85200
O2581       O  0.51730187  0.12201128  0.53602052    -0.71900
O2582       O  0.55109358  0.10003650  0.49967922    -0.84100
Zr2583     Zr  0.54110414  0.04236020  0.57448346     2.26400
Zr2584     Zr  0.51608996  0.11368232  0.58979939     2.06300
Zr2585     Zr  0.58584289  0.06831866  0.51136037     2.10000
Zr2586     Zr  0.59285696  0.09999731  0.59326851     1.78800
O2587       O  0.57241437  0.04579365  0.97117109    -0.92900
O2588       O  0.59298657  0.11145981  0.64708004    -0.40700
O2589       O  0.58269233  0.06188703  0.56507958    -0.77300
O2590       O  0.55073437  0.08229591  0.60339218    -0.96000
O2591       O  0.50608010  0.07295486  0.56308104    -0.89300
O2592       O  0.54317780  0.04921191  0.52061517    -0.92100
C2593       C  0.61168861  0.16378685  0.57643407     1.01600
C2594       C  0.59849596  0.12518141  0.47357307     1.14600
C2595       C  0.51675793  0.18126933  0.56479731     1.05300
O2596       O  0.50908467  0.13494145  0.63861173    -0.94300
O2597       O  0.50395142  0.08322502  0.63108179    -0.90000
O2598       O  0.52147913  0.04148313  0.62390952    -0.83200
C2599       C  0.50859898  0.05861035  0.63902367     1.12000
O2600       O  0.49312611  0.11080589  0.97050241    -0.96300
Zr2601     Zr  0.50852397  0.08030227  0.50960325     1.88900
O2602       O  0.50531873  0.01488859  0.55725872    -0.72900
O2603       O  0.46894879  0.11541863  0.58086774    -0.52200
O2604       O  0.46172135  0.09201119  0.01614652    -0.96900
O2605       O  0.51150303  0.06088576  0.96129782    -0.54100
O2606       O  0.48698175  0.03540737  0.51548857    -0.73400
C2607       C  0.48902688  0.01552287  0.53500326     0.98900
O2608       O  0.54980742  0.00083958  0.60336099    -0.62200
O2609       O  0.62437862  0.04803353  0.48856054    -0.57100
O2610       O  0.57262123  0.01040691  0.55463274    -0.93700
O2611       O  0.60826268  0.03357792  0.54321227    -0.92200
O2612       O  0.63849684  0.09132398  0.58093494    -0.92500
O2613       O  0.61148389  0.06650440  0.62882322    -0.91300
C2614       C  0.59705442  0.01431551  0.55806415     1.17800
H2615       H  0.61250471  0.11637427  0.53528674     0.33700
H2616       H  0.55173871  0.07879889  0.62511725     0.44600
H2617       H  0.54070986  0.03239259  0.51027035     0.38100
H2618       H  0.50402617  0.13505047  0.52993968     0.34600
H2619       H  0.60871747  0.12278525  0.65002705     0.26300
H2620       H  0.46133039  0.10638811  0.59910009     0.32300
H2621       H  0.45279591  0.08150704  0.00015547     0.38200
H2622       H  0.63890114  0.07228617  0.57452724     0.32700
H2623       H  0.62440154  0.05457912  0.46703548     0.31500
H2624       H  0.57529486  0.02566780  0.47028670     0.33200
H2625       H  0.49317420  0.05795455  0.95457759     0.32200
H2626       H  0.59631881  0.05558875  0.63560992     0.36200
H2627       H  0.55737147  0.00734295  0.62261559     0.28900
H2628       H  0.56512669  0.19481826  0.01120115     0.33100
H2629       H  0.50266603  0.12785248  0.97399554     0.36000
H2630       H  0.63946913  0.05718764  0.49817344     0.28600
H2631       H  0.53250004  0.99331599  0.60886298     0.41500
H2632       H  0.52586284  0.13240497  0.64986269     0.31500
H2633       H  0.57802999  0.12402290  0.64913218     0.39200
H2634       H  0.51851033  0.04243962  0.96502666     0.31000
H2635       H  0.46419138  0.13468473  0.58283016     0.31100
H2636       H  0.54173064  0.18255319  0.99248122     0.31300
Zr2637     Zr  0.90292152  0.17762750  0.80695372     2.17500
O2638       O  0.90448578  0.20233388  0.85444916    -0.51000
O2639       O  0.87917445  0.21061051  0.77366997    -0.74200
O2640       O  0.93210075  0.21485837  0.80165971    -0.81000
O2641       O  0.84229634  0.14296583  0.83463418    -0.82800
O2642       O  0.96567088  0.20251377  0.77130455    -0.78400
O2643       O  0.86225756  0.18394551  0.83235119    -0.90000
O2644       O  0.87043554  0.19072846  0.72840856    -0.76000
O2645       O  0.91686179  0.17397763  0.75591585    -0.85500
O2646       O  0.87123621  0.15029123  0.78263297    -0.85200
O2647       O  0.94581676  0.15722408  0.81255559    -0.71900
O2648       O  0.90491889  0.13584946  0.83644938    -0.84100
Zr2649     Zr  0.92867648  0.08418325  0.76072034     2.26400
Zr2650     Zr  0.95938807  0.15453881  0.76085392     2.06300
Zr2651     Zr  0.87178582  0.10959416  0.81252991     2.10000
Zr2652     Zr  0.88575728  0.14524279  0.73200486     1.78800
O2653       O  0.86673688  0.09688033  0.86616145    -0.92900
O2654       O  0.90027474  0.16223404  0.68240438    -0.40700
O2655       O  0.88529548  0.10363758  0.76009177    -0.77300
O2656       O  0.92848219  0.12700764  0.73372601    -0.96000
O2657       O  0.96118699  0.11062802  0.78558279    -0.89300
O2658       O  0.91463307  0.08796641  0.81261105    -0.92100
C2659       C  0.86957316  0.21058368  0.74631242     1.01600
C2660       C  0.84309937  0.16855819  0.83897861     1.14600
C2661       C  0.95309081  0.21970188  0.78712586     1.05300
O2662       O  0.97481042  0.18114087  0.71727196    -0.94300
O2663       O  0.98011671  0.12922176  0.72208495    -0.90000
O2664       O  0.96082959  0.08786915  0.71952509    -0.83200
C2665       C  0.97701042  0.10610273  0.71035844     1.12000
O2666       O  0.96004075  0.13786318  0.88195705    -0.96300
Zr2667     Zr  0.94721875  0.11271712  0.83699736     1.88900
O2668       O  0.95120856  0.04831605  0.78861529    -0.72900
O2669       O  0.00380297  0.15472433  0.78167365    -0.52200
O2670       O  0.99483683  0.11492087  0.83996923    -0.96900
O2671       O  0.93225134  0.09288195  0.88515305    -0.54100
O2672       O  0.96095212  0.06383652  0.83575094    -0.73400
C2673       C  0.96033706  0.04493337  0.81568919     0.98900
O2674       O  0.92653952  0.04599874  0.72678557    -0.62200
O2675       O  0.82812128  0.09560123  0.79667891    -0.57100
O2676       O  0.88504870  0.06609448  0.76559742    -0.93700
O2677       O  0.86644615  0.06167964  0.81025666    -0.92200
O2678       O  0.83862000  0.14269479  0.72358663    -0.92500
O2679       O  0.87574947  0.11317855  0.69224202    -0.91300
C2680       C  0.87898573  0.05134479  0.78863780     1.17800
H2681       H  0.85410614  0.15858787  0.78161573     0.33700
H2682       H  0.93237240  0.12584475  0.71232255     0.44600
H2683       H  0.91375697  0.07077684  0.82331151     0.38100
H2684       H  0.95735230  0.16908718  0.82354022     0.34600
H2685       H  0.88431324  0.16992313  0.67250440     0.26300
H2686       H  0.00850721  0.13545613  0.78465748     0.32300
H2687       H  0.00009763  0.09909650  0.85285532     0.38200
H2688       H  0.83537929  0.15327408  0.70445799     0.32700
H2689       H  0.81620527  0.10222169  0.81256928     0.31500
H2690       H  0.85192299  0.08403230  0.86644289     0.33200
H2691       H  0.94645780  0.08038014  0.89186371     0.32200
H2692       H  0.89087365  0.10060589  0.69245323     0.36200
H2693       H  0.92851114  0.05365954  0.70589370     0.28900
H2694       H  0.90168292  0.22154389  0.84848446     0.33100
H2695       H  0.97334641  0.12655590  0.89282428     0.36000
H2696       H  0.82407401  0.10700161  0.77837492     0.28600
H2697       H  0.94289177  0.03565610  0.73074069     0.41500
H2698       H  0.95896404  0.18437519  0.70448614     0.31500
H2699       H  0.91118713  0.17812811  0.68708407     0.39200
H2700       H  0.91761286  0.08090071  0.87943568     0.31000
H2701       H  0.01476028  0.16098248  0.76439930     0.31100
H2702       H  0.92299555  0.20124934  0.86133801     0.31300
Zr2703     Zr  0.89413207  0.33421122  0.81735368     2.17500
O2704       O  0.88017759  0.30481069  0.77629148    -0.51000
O2705       O  0.87441846  0.30624235  0.85929311    -0.74200
O2706       O  0.92561375  0.29841202  0.80742611    -0.81000
O2707       O  0.83085275  0.37362358  0.81235778    -0.82800
O2708       O  0.96722420  0.31454491  0.81056464    -0.78400
O2709       O  0.84868582  0.33236534  0.80363757    -0.90000
O2710       O  0.88223219  0.32650675  0.90449382    -0.76000
O2711       O  0.92773663  0.33729723  0.85484955    -0.85500
O2712       O  0.87538223  0.36192908  0.85493818    -0.85200
O2713       O  0.92994571  0.35599620  0.79092930    -0.71900
O2714       O  0.88399850  0.37680909  0.79148502    -0.84100
Zr2715     Zr  0.93603128  0.42929741  0.84374024     2.26400
Zr2716     Zr  0.96330393  0.35994025  0.82934166     2.06300
Zr2717     Zr  0.86519836  0.40409896  0.83011096     2.10000
Zr2718     Zr  0.90900275  0.36477610  0.89280345     1.78800
O2719       O  0.84647716  0.43604709  0.79282139    -0.92900
O2720       O  0.93827832  0.33403377  0.92105579    -0.40700
O2721       O  0.89979753  0.40665113  0.86780526    -0.77300
O2722       O  0.94502765  0.38633088  0.86911373    -0.96000
O2723       O  0.95478789  0.40304535  0.80492122    -0.89300
O2724       O  0.90198861  0.42617149  0.80587809    -0.92100
C2725       C  0.87150910  0.30840419  0.88848056     1.01600
C2726       C  0.82947907  0.34887322  0.80434104     1.14600
C2727       C  0.95055566  0.29604677  0.80492418     1.05300
O2728       O  0.99356733  0.33223852  0.85994560    -0.94300
O2729       O  0.99672125  0.38474926  0.85629803    -0.90000
O2730       O  0.97916114  0.42562436  0.86773176    -0.83200
C2731       C  0.99729961  0.40763325  0.86930198     1.12000
O2732       O  0.91259529  0.37402978  0.72167385    -0.96300
Zr2733     Zr  0.92078378  0.39974785  0.76762939     1.88900
O2734       O  0.95139961  0.46087168  0.80510470    -0.72900
O2735       O  0.99537597  0.36530500  0.78892874    -0.52200
O2736       O  0.96110369  0.39464374  0.73902645    -0.96900
O2737       O  0.88813179  0.42076155  0.73363610    -0.54100
O2738       O  0.93590990  0.44708795  0.75933911    -0.73400
C2739       C  0.94691143  0.46469392  0.77657636     0.98900
O2740       O  0.94901463  0.46748102  0.87448073    -0.62200
O2741       O  0.82535912  0.40962960  0.85957615    -0.57100
O2742       O  0.89747011  0.45771128  0.84726555    -0.93700
O2743       O  0.86245101  0.43975047  0.86709319    -0.92200
O2744       O  0.87634762  0.38150796  0.92785481    -0.92500
O2745       O  0.92610203  0.38554149  0.93874088    -0.91300
C2746       C  0.88223965  0.45501584  0.86963911     1.17800
H2747       H  0.85924451  0.35485833  0.86307021     0.33700
H2748       H  0.95651881  0.38748381  0.88657658     0.44600
H2749       H  0.89697577  0.44337678  0.79673707     0.38100
H2750       H  0.93601094  0.34445163  0.77498383     0.34600
H2751       H  0.93759065  0.31682100  0.91002114     0.26300
H2752       H  0.01169685  0.35741556  0.79773248     0.32300
H2753       H  0.95914888  0.40712988  0.72116967     0.38200
H2754       H  0.86316817  0.39077235  0.91456159     0.32700
H2755       H  0.81129712  0.41342949  0.84433567     0.31500
H2756       H  0.83862078  0.45033721  0.80528869     0.33200
H2757       H  0.88532878  0.43906819  0.74162547     0.32200
H2758       H  0.93158353  0.40384545  0.93196019     0.36200
H2759       H  0.96619464  0.47334915  0.86646436     0.28900
H2760       H  0.88106565  0.28613091  0.78481270     0.33100
H2761       H  0.91680958  0.38632465  0.70428246     0.36000
H2762       H  0.82137881  0.39142684  0.86808644     0.28600
H2763       H  0.93714370  0.48231424  0.86777424     0.41500
H2764       H  0.98224804  0.32164104  0.87393709     0.31500
H2765       H  0.95607438  0.34111974  0.91719073     0.39200
H2766       H  0.87167525  0.41103756  0.73823033     0.31000
H2767       H  0.98986903  0.35244884  0.77313707     0.31100
H2768       H  0.89420274  0.30586789  0.76086633     0.31300
Zr2769     Zr  0.69329505  0.22615922  0.49667002     2.17500
O2770       O  0.69016084  0.18849311  0.53311967    -0.51000
O2771       O  0.65779049  0.24935560  0.52024649    -0.74200
O2772       O  0.70899863  0.24161596  0.54577287    -0.81000
O2773       O  0.65357007  0.19540806  0.93373230    -0.82800
O2774       O  0.74824144  0.26317297  0.54123175    -0.78400
O2775       O  0.66079082  0.19417311  0.98527820    -0.90000
O2776       O  0.66124080  0.29144167  0.00135388    -0.76000
O2777       O  0.71646259  0.26852006  0.99672887    -0.85500
O2778       O  0.67336243  0.25113175  0.95806345    -0.85200
O2779       O  0.74134046  0.21775511  0.99064082    -0.71900
O2780       O  0.70140709  0.20204097  0.95150515    -0.84100
Zr2781     Zr  0.74696217  0.26117261  0.90272294     2.26400
Zr2782     Zr  0.76209938  0.26134972  0.98698684     2.06300
Zr2783     Zr  0.68154349  0.22895335  0.91111547     2.10000
Zr2784     Zr  0.69371242  0.29399287  0.95904525     1.78800
O2785       O  0.66429852  0.19534490  0.87656696    -0.92900
O2786       O  0.70586992  0.33044529  0.99278082    -0.40700
O2787       O  0.70169535  0.27220499  0.91096169    -0.77300
O2788       O  0.73983702  0.28726419  0.94776652    -0.96000
O2789       O  0.76786187  0.23570186  0.94251803    -0.89300
O2790       O  0.72642028  0.21840918  0.90362055    -0.92100
C2791       C  0.65040642  0.27397950  0.51907486     1.01600
C2792       C  0.64943744  0.18628046  0.96073601     1.14600
C2793       C  0.72856860  0.25455764  0.55682028     1.05300
O2794       O  0.77795583  0.30572494  0.00120033    -0.94300
O2795       O  0.80230196  0.27188649  0.95695825    -0.90000
O2796       O  0.79045147  0.27808050  0.90705996    -0.83200
C2797       C  0.80738305  0.27764653  0.92861973     1.12000
O2798       O  0.74138260  0.15466011  0.97948439    -0.96300
Zr2799     Zr  0.74651161  0.19329113  0.94473640     1.88900
O2800       O  0.77689984  0.23019267  0.87750812    -0.72900
O2801       O  0.79571216  0.24187094  0.51565922    -0.52200
O2802       O  0.78800270  0.17663930  0.96574094    -0.96900
O2803       O  0.72995342  0.15472997  0.91693556    -0.54100
O2804       O  0.77675916  0.19007325  0.90393382    -0.73400
C2805       C  0.78453282  0.20567981  0.88242228     0.98900
O2806       O  0.75250292  0.30304099  0.87316301    -0.62200
O2807       O  0.64194664  0.25574952  0.90275590    -0.57100
O2808       O  0.72916445  0.25519718  0.85253093    -0.93700
O2809       O  0.68847049  0.23724558  0.85620965    -0.92200
O2810       O  0.65242428  0.30947745  0.93633607    -0.92500
O2811       O  0.69919794  0.33678152  0.93138997    -0.91300
C2812       C  0.70799028  0.24625284  0.84074657     1.17800
H2813       H  0.65474231  0.25224568  0.96154906     0.33700
H2814       H  0.74823103  0.30461609  0.94527648     0.44600
H2815       H  0.72854345  0.20904178  0.88470582     0.38100
H2816       H  0.74637533  0.20909062  0.50898342     0.34600
H2817       H  0.70306303  0.32307171  0.01368779     0.26300
H2818       H  0.80410499  0.25694254  0.52650413     0.32300
H2819       H  0.79074762  0.18694467  0.98459592     0.38200
H2820       H  0.65553812  0.31025522  0.91406742     0.32700
H2821       H  0.64505722  0.26590527  0.88341349     0.31500
H2822       H  0.64659989  0.20195688  0.87064599     0.33200
H2823       H  0.73712323  0.15679473  0.89610588     0.32200
H2824       H  0.70529026  0.33164187  0.91093075     0.36200
H2825       H  0.76137074  0.29773558  0.85420373     0.28900
H2826       H  0.67759525  0.19477308  0.54849543     0.33100
H2827       H  0.72637717  0.15948359  0.99242516     0.36000
H2828       H  0.62824577  0.24246967  0.89759125     0.28600
H2829       H  0.73457660  0.30832138  0.86650356     0.41500
H2830       H  0.75621116  0.31488385  0.51336300     0.31500
H2831       H  0.72513871  0.33180721  0.99105201     0.39200
H2832       H  0.71097342  0.15835117  0.91427855     0.31000
H2833       H  0.78747491  0.23075792  0.53196670     0.31100
H2834       H  0.70725250  0.18788255  0.54398511     0.31300
Zr2835     Zr  0.68491124  0.26828298  0.65117058     2.17500
O2836       O  0.66895552  0.30546822  0.61860193    -0.51000
O2837       O  0.65958594  0.23529178  0.62484830    -0.74200
O2838       O  0.70466706  0.26257616  0.60121368    -0.81000
O2839       O  0.63713823  0.27695604  0.71761143    -0.82800
O2840       O  0.74912814  0.25950500  0.60523772    -0.78400
O2841       O  0.64196116  0.28393691  0.66626500    -0.90000
O2842       O  0.67784153  0.19520411  0.64001047    -0.76000
O2843       O  0.71919876  0.23607063  0.64852949    -0.85500
O2844       O  0.67403557  0.23432223  0.68852280    -0.85200
O2845       O  0.72475299  0.29251017  0.65986266    -0.71900
O2846       O  0.68370903  0.28925309  0.69965577    -0.84100
Zr2847     Zr  0.74728829  0.24789108  0.74408859     2.26400
Zr2848     Zr  0.75923680  0.25914130  0.65986395     2.06300
Zr2849     Zr  0.67518958  0.25475362  0.73766868     2.10000
Zr2850     Zr  0.70787462  0.20193425  0.68423444     1.78800
O2851       O  0.64714919  0.27798603  0.77335193    -0.92900
O2852       O  0.73554937  0.17503858  0.65153211    -0.40700
O2853       O  0.70874281  0.22173113  0.73428053    -0.77300
O2854       O  0.74857147  0.22442149  0.69662982    -0.96000
O2855       O  0.75726773  0.28178591  0.70696828    -0.89300
O2856       O  0.71354848  0.28051715  0.74688425    -0.92100
C2857       C  0.66195729  0.20973195  0.62327204     1.01600
C2858       C  0.62942246  0.28556181  0.69144302     1.14600
C2859       C  0.72759890  0.25964919  0.58976038     1.05300
O2860       O  0.78867578  0.22567834  0.63868630    -0.94300
O2861       O  0.80172154  0.25448683  0.68726394    -0.90000
O2862       O  0.79340098  0.24522445  0.73738538    -0.83200
C2863       C  0.80887115  0.24897367  0.71508955     1.12000
O2864       O  0.69818810  0.35030278  0.68292912    -0.96300
Zr2865     Zr  0.72266860  0.31380927  0.70831972     1.88900
O2866       O  0.76821948  0.28541280  0.76977367    -0.72900
O2867       O  0.78251358  0.29795755  0.63863014    -0.52200
O2868       O  0.75213469  0.34457347  0.68160037    -0.96900
O2869       O  0.69786668  0.34261594  0.74205116    -0.54100
O2870       O  0.75474957  0.32476121  0.74663102    -0.73400
C2871       C  0.76849496  0.31122097  0.76614086     0.98900
O2872       O  0.76503152  0.20862805  0.77191417    -0.62200
O2873       O  0.64757913  0.21524152  0.74552131    -0.57100
O2874       O  0.73021116  0.24517265  0.79488128    -0.93700
O2875       O  0.68592364  0.24843748  0.79218592    -0.92200
O2876       O  0.67356582  0.17161003  0.70210661    -0.92500
O2877       O  0.72363109  0.16155299  0.71138639    -0.91300
C2878       C  0.70761828  0.24620562  0.80717990     1.17800
H2879       H  0.65698784  0.22663155  0.68465938     0.33700
H2880       H  0.76251689  0.21119074  0.69754634     0.44600
H2881       H  0.71304906  0.28892218  0.76654623     0.38100
H2882       H  0.72733699  0.30581481  0.64372630     0.34600
H2883       H  0.72327770  0.16630889  0.63719978     0.26300
H2884       H  0.79102448  0.30629045  0.65649553     0.32300
H2885       H  0.75306440  0.36064470  0.69459047     0.38200
H2886       H  0.67311102  0.15695349  0.68710711     0.32700
H2887       H  0.64528002  0.21383881  0.76791610     0.31500
H2888       H  0.63495488  0.26400157  0.78116138     0.33200
H2889       H  0.70985512  0.34658193  0.75925426     0.32200
H2890       H  0.73426492  0.16846827  0.72852150     0.36200
H2891       H  0.74962337  0.19706654  0.77605548     0.28900
H2892       H  0.65865334  0.29667855  0.60235233     0.33100
H2893       H  0.68214092  0.34162314  0.67497789     0.36000
H2894       H  0.63016060  0.22089584  0.73748887     0.28600
H2895       H  0.77507930  0.19855623  0.75663940     0.41500
H2896       H  0.78249901  0.22278657  0.61753393     0.31500
H2897       H  0.74506189  0.18841710  0.63873145     0.39200
H2898       H  0.68440154  0.33060514  0.75108264     0.31000
H2899       H  0.79714607  0.29004478  0.62713863     0.31100
H2900       H  0.68465744  0.31259267  0.60812667     0.31300
Zr2901     Zr  0.40724659  0.00834112  0.72500727     2.17500
O2902       O  0.42479679  0.96484300  0.71016449    -0.51000
O2903       O  0.44593399  0.99591336  0.75597428    -0.74200
O2904       O  0.44296328  0.02408718  0.69498025    -0.81000
O2905       O  0.34029451  0.97152926  0.72325545    -0.82800
O2906       O  0.45046817  0.06626712  0.71269090    -0.78400
O2907       O  0.38023152  0.97398133  0.70065867    -0.90000
O2908       O  0.44664839  0.02633328  0.79362463    -0.76000
O2909       O  0.42099266  0.04593713  0.75335281    -0.85500
O2910       O  0.38457028  0.00335867  0.77194239    -0.85200
O2911       O  0.39735507  0.04828886  0.69345204    -0.71900
O2912       O  0.36231237  0.01377989  0.71333155    -0.84100
Zr2913     Zr  0.33914917  0.08356987  0.75620611     2.26400
Zr2914     Zr  0.40859622  0.08569795  0.72533100     2.06300
Zr2915     Zr  0.33848193  0.00833026  0.75910109     2.10000
Zr2916     Zr  0.39956030  0.04136233  0.79990551     1.78800
O2917       O  0.30789918  0.97108819  0.76647970    -0.92900
O2918       O  0.42536215  0.07505876  0.82637799    -0.40700
O2919       O  0.35259185  0.04561228  0.78835952    -0.77300
O2920       O  0.38502309  0.08182122  0.77238001    -0.96000
O2921       O  0.36390842  0.08705935  0.71086221    -0.89300
O2922       O  0.32677804  0.04630946  0.72634684    -0.92100
C2923       C  0.45830439  0.00885137  0.77664365     1.01600
C2924       C  0.35696764  0.96423061  0.70338524     1.14600
C2925       C  0.45732972  0.04470277  0.69930492     1.05300
O2926       O  0.43798845  0.11310448  0.75577954    -0.94300
O2927       O  0.38783885  0.13050114  0.72231484    -0.90000
O2928       O  0.35573217  0.12858079  0.75777363    -0.83200
C2929       C  0.36949204  0.14119272  0.73795711     1.12000
O2930       O  0.35362894  0.01402205  0.64466099    -0.96300
Zr2931     Zr  0.35153822  0.05080724  0.68054836     1.88900
O2932       O  0.32044414  0.11263920  0.71432470    -0.72900
O2933       O  0.42528381  0.10706501  0.67882817    -0.52200
O2934       O  0.37153556  0.06586125  0.63287579    -0.96900
O2935       O  0.30763987  0.04067583  0.66156494    -0.54100
O2936       O  0.33315135  0.09521972  0.66921124    -0.73400
C2937       C  0.32264661  0.11379445  0.68493111     0.98900
O2938       O  0.31999563  0.10474526  0.80044047    -0.62200
O2939       O  0.34492371  0.99100701  0.81116136    -0.57100
O2940       O  0.29325839  0.07022270  0.76557217    -0.93700
O2941       O  0.29351530  0.02434322  0.76701793    -0.92200
O2942       O  0.40076738  0.00302818  0.83572949    -0.92500
O2943       O  0.38370397  0.05315815  0.85011889    -0.91300
C2944       C  0.28157463  0.04719062  0.76781032     1.17800
H2945       H  0.38876230  0.98619392  0.78172990     0.33700
H2946       H  0.38894972  0.09719356  0.78479778     0.44600
H2947       H  0.30866247  0.04651699  0.72003296     0.38100
H2948       H  0.40694065  0.04910430  0.67456906     0.34600
H2949       H  0.43649662  0.06448791  0.84096085     0.26300
H2950       H  0.41016781  0.11701132  0.66971049     0.32300
H2951       H  0.35705495  0.06572074  0.61766136     0.38200
H2952       H  0.41955707  0.00054744  0.84089128     0.32700
H2953       H  0.32779901  0.99364364  0.82108633     0.31500
H2954       H  0.29429399  0.97364142  0.75037699     0.33200
H2955       H  0.30864687  0.04371224  0.63918958     0.32200
H2956       H  0.37056724  0.06756807  0.84597292     0.36200
H2957       H  0.33512842  0.10892755  0.81381882     0.28900
H2958       H  0.42495771  0.95349343  0.72908113     0.33100
H2959       H  0.37228010  0.00847254  0.64481798     0.36000
H2960       H  0.34664621  0.97119795  0.80929938     0.28600
H2961       H  0.31353454  0.12256241  0.79285179     0.41500
H2962       H  0.45318753  0.10118379  0.76043363     0.31500
H2963       H  0.43773429  0.08201420  0.81086610     0.39200
H2964       H  0.29640723  0.05561329  0.66852277     0.31000
H2965       H  0.43725912  0.12131005  0.68604131     0.31100
H2966       H  0.44350432  0.96811510  0.70569241     0.31300
Zr2967     Zr  0.06739826  0.07062921  0.73004831     2.17500
O2968       O  0.03293466  0.09748562  0.75230636    -0.51000
O2969       O  0.03511316  0.03793072  0.71573407    -0.74200
O2970       O  0.05138940  0.07618612  0.67779994    -0.81000
O2971       O  0.10437342  0.05441215  0.79949329    -0.82800
O2972       O  0.05517555  0.11676103  0.65746427    -0.78400
O2973       O  0.06405392  0.04765282  0.77974317    -0.90000
O2974       O  0.05623621  0.01689323  0.67730214    -0.76000
O2975       O  0.08114112  0.06784133  0.67892318    -0.85500
O2976       O  0.09532499  0.03183604  0.72993712    -0.85200
O2977       O  0.08647639  0.11338798  0.71491107    -0.71900
O2978       O  0.10445562  0.08002457  0.76151133    -0.84100
Zr2979     Zr  0.16556511  0.08074886  0.69565414     2.26400
Zr2980     Zr  0.10204847  0.10906538  0.66295087     2.06300
Zr2981     Zr  0.13396949  0.04224197  0.75937293     2.10000
Zr2982     Zr  0.10517697  0.02833912  0.67729375     1.78800
O2983       O  0.14740691  0.02364700  0.80914989    -0.92900
O2984       O  0.09261875  0.02909748  0.62347983    -0.40700
O2985       O  0.14472558  0.03797030  0.70699814    -0.77300
O2986       O  0.12925235  0.06926606  0.66223239    -0.96000
O2987       O  0.13751256  0.11917738  0.69641713    -0.89300
O2988       O  0.15220556  0.08454106  0.74702519    -0.92100
C2989       C  0.03519854  0.02207451  0.69303620     1.01600
C2990       C  0.08093060  0.04595374  0.80168265     1.14600
C2991       C  0.04075642  0.09771693  0.66742614     1.05300
O2992       O  0.09254062  0.09921678  0.60978702    -0.94300
O2993       O  0.13871890  0.12915273  0.63470377    -0.90000
O2994       O  0.17670770  0.11145720  0.65421186    -0.83200
C2995       C  0.16384853  0.12705764  0.63577838     1.12000
O2996       O  0.08765238  0.14462870  0.77431354    -0.96300
Zr2997     Zr  0.12290531  0.12229703  0.74750170     1.88900
O2998       O  0.19337364  0.11199325  0.72481928    -0.72900
O2999       O  0.09435657  0.15753662  0.65730423    -0.52200
O3000       O  0.12226912  0.16816922  0.72635353    -0.96900
O3001       O  0.12856870  0.12820107  0.80232245    -0.54100
O3002       O  0.16691728  0.13688405  0.75501752    -0.73400
C3003       C  0.18929406  0.12940081  0.74574708     0.98900
O3004       O  0.19606397  0.05794577  0.66237290    -0.62200
O3005       O  0.13018442  0.99351163  0.75379673    -0.57100
O3006       O  0.20125619  0.05995131  0.72393935    -0.93700
O3007       O  0.18271606  0.04198676  0.76671600    -0.92200
O3008       O  0.10550235  0.98066364  0.69207652    -0.92500
O3009       O  0.13501891  0.00088201  0.64795824    -0.91300
C3010       C  0.20282948  0.04902679  0.75062112     1.17800
H3011       H  0.08631261  0.01604054  0.73764224     0.33700
H3012       H  0.13577278  0.06714623  0.64178465     0.44600
H3013       H  0.16598335  0.08714057  0.76181799     0.38100
H3014       H  0.07372369  0.12769012  0.71596903     0.34600
H3015       H  0.08504395  0.01103171  0.62002945     0.26300
H3016       H  0.08536109  0.15988828  0.63728164     0.32300
H3017       H  0.12573497  0.17973546  0.74407155     0.38200
H3018       H  0.09113973  0.97270331  0.67991334     0.32700
H3019       H  0.14746333  0.98617631  0.76033013     0.31500
H3020       H  0.13382132  0.01029170  0.81485102     0.33200
H3021       H  0.14283630  0.14149257  0.80473446     0.32200
H3022       H  0.14557940  0.01409093  0.63611737     0.36200
H3023       H  0.19332123  0.03847637  0.66687807     0.28900
H3024       H  0.01703341  0.08626590  0.75043563     0.33100
H3025       H  0.07554971  0.12986063  0.78021069     0.36000
H3026       H  0.11797246  0.98740048  0.76992709     0.28600
H3027       H  0.18877476  0.06073073  0.64150833     0.41500
H3028       H  0.09851670  0.11535616  0.59810145     0.31500
H3029       H  0.07743795  0.04157319  0.62208071     0.39200
H3030       H  0.13614165  0.11087183  0.80996368     0.31000
H3031       H  0.08085301  0.16180774  0.67252985     0.31100
H3032       H  0.03021228  0.11272464  0.73759513     0.31300
Zr3033     Zr  0.44309687  0.48444626  0.95340840     2.17500
O3034       O  0.46163342  0.49445131  0.50203388    -0.51000
O3035       O  0.47855897  0.49972909  0.92356208    -0.74200
O3036       O  0.48015639  0.45401141  0.96162986    -0.81000
O3037       O  0.40252894  0.54792516  0.94047013    -0.82800
O3038       O  0.46391735  0.42962240  0.92535700    -0.78400
O3039       O  0.44104754  0.53374336  0.95702016    -0.90000
O3040       O  0.46538675  0.48961884  0.87544968    -0.76000
O3041       O  0.44132039  0.45361553  0.91184511    -0.85500
O3042       O  0.41626616  0.50608528  0.91462920    -0.85200
O3043       O  0.42499015  0.44195633  0.97179341    -0.71900
O3044       O  0.39996385  0.48970474  0.97337616    -0.84100
Zr3045     Zr  0.35227478  0.44120279  0.92008663     2.26400
Zr3046     Zr  0.41980533  0.41271125  0.92843766     2.06300
Zr3047     Zr  0.37217778  0.51080400  0.93436444     2.10000
Zr3048     Zr  0.41640884  0.47618352  0.87451168     1.78800
O3049       O  0.35480020  0.54922427  0.96147060    -0.92900
O3050       O  0.43597215  0.44491789  0.83903354    -0.40700
O3051       O  0.37498349  0.47822735  0.89877484    -0.77300
O3052       O  0.39282058  0.43663153  0.89166611    -0.96000
O3053       O  0.37992677  0.41846395  0.95573662    -0.89300
O3054       O  0.35628802  0.47122954  0.96098392    -0.92100
C3055       C  0.48305116  0.49763876  0.89527989     1.01600
C3056       C  0.41876616  0.54438283  0.96225494     1.14600
C3057       C  0.47716398  0.43096245  0.94989926     1.05300
O3058       O  0.44685287  0.37627140  0.90953965    -0.94300
O3059       O  0.39549302  0.38469386  0.89284706    -0.90000
O3060       O  0.35312371  0.39892467  0.89477217    -0.83200
C3061       C  0.37113401  0.38331728  0.88549310     1.12000
O3062       O  0.41253930  0.46207765  0.54002758    -0.96300
Zr3063     Zr  0.38478337  0.44909627  0.99664008     1.88900
O3064       O  0.33170997  0.41043910  0.96011865    -0.72900
O3065       O  0.42060882  0.37694593  0.96768518    -0.52200
O3066       O  0.40471311  0.41206482  0.02648910    -0.96900
O3067       O  0.36076720  0.47488532  0.52921918    -0.54100
O3068       O  0.34932859  0.41924971  0.00657568    -0.73400
C3069       C  0.33348007  0.40666275  0.98960348     0.98900
O3070       O  0.31788878  0.43908292  0.88106896    -0.62200
O3071       O  0.35883104  0.52938110  0.88463041    -0.57100
O3072       O  0.31204121  0.46726528  0.92604742    -0.93700
O3073       O  0.32386968  0.50975187  0.93875492    -0.92200
O3074       O  0.41299836  0.52010878  0.84851017    -0.92500
O3075       O  0.39694120  0.47360823  0.82365983    -0.91300
C3076       C  0.30655466  0.49125769  0.93450097     1.17800
H3077       H  0.42419007  0.52221818  0.90608547     0.33700
H3078       H  0.38979112  0.42796076  0.87247938     0.44600
H3079       H  0.34023659  0.47381379  0.97191494     0.38100
H3080       H  0.43640499  0.43409197  0.98720564     0.34600
H3081       H  0.45098299  0.45484194  0.83013304     0.26300
H3082       H  0.40417733  0.37878044  0.97922696     0.32300
H3083       H  0.39686669  0.39586026  0.51925933     0.38200
H3084       H  0.42963111  0.52200126  0.83723446     0.32700
H3085       H  0.34026060  0.53466514  0.88698953     0.31500
H3086       H  0.34696382  0.56111440  0.94532530     0.33200
H3087       H  0.34602858  0.46293681  0.53489125     0.32200
H3088       H  0.37794695  0.47624583  0.82682882     0.36200
H3089       H  0.32711905  0.43579328  0.86172685     0.28900
H3090       H  0.48061931  0.49042819  0.50189298     0.33100
H3091       H  0.40233048  0.45516518  0.55763284     0.36000
H3092       H  0.36832963  0.54673024  0.88279855     0.28600
H3093       H  0.30819176  0.42217585  0.88552661     0.41500
H3094       H  0.45225296  0.38264271  0.88896539     0.31500
H3095       H  0.44409190  0.43062803  0.85219721     0.39200
H3096       H  0.35265368  0.48950634  0.51654281     0.31000
H3097       H  0.41829036  0.35998693  0.95645681     0.31100
H3098       H  0.45389939  0.48027962  0.51530407     0.31300
Zr3099     Zr  0.09199038  0.48306399  0.94078531     2.17500
O3100       O  0.06274206  0.50062487  0.90048782    -0.51000
O3101       O  0.05917274  0.49722082  0.97798113    -0.74200
O3102       O  0.05808762  0.45207475  0.92663502    -0.81000
O3103       O  0.13970457  0.52886496  0.90410790    -0.82800
O3104       O  0.07208917  0.40943350  0.93864791    -0.78400
O3105       O  0.09944243  0.52894806  0.92329492    -0.90000
O3106       O  0.08057342  0.49054187  0.52281630    -0.76000
O3107       O  0.09485263  0.45347117  0.98406352    -0.85500
O3108       O  0.12122251  0.50587023  0.97434134    -0.85200
O3109       O  0.10980310  0.44166640  0.92084981    -0.71900
O3110       O  0.13339166  0.48663304  0.91527229    -0.84100
Zr3111     Zr  0.18376725  0.43952453  0.97277810     2.26400
Zr3112     Zr  0.11403187  0.41270092  0.96567331     2.06300
Zr3113     Zr  0.16297323  0.50960565  0.94840461     2.10000
Zr3114     Zr  0.12714728  0.47600469  0.51453699     1.78800
O3115       O  0.18418765  0.55027470  0.92828559    -0.92900
O3116       O  0.11236800  0.44850621  0.55784306    -0.40700
O3117       O  0.16604742  0.48065692  0.99271703    -0.77300
O3118       O  0.14634656  0.43377238  0.49852745    -0.96000
O3119       O  0.15412134  0.41815537  0.93913951    -0.89300
O3120       O  0.18010638  0.46827117  0.92886050    -0.92100
C3121       C  0.05762457  0.49770287  0.00726064     1.01600
C3122       C  0.11514864  0.53366966  0.90150984     1.14600
C3123       C  0.05570578  0.42644035  0.92674650     1.05300
O3124       O  0.10330280  0.39940039  0.51623447    -0.94300
O3125       O  0.15083669  0.37585925  0.46112593    -0.90000
O3126       O  0.18538618  0.39259881  0.48718997    -0.83200
C3127       C  0.17354609  0.37345758  0.47392408     1.12000
O3128       O  0.12691175  0.46280569  0.85023453    -0.96300
Zr3129     Zr  0.15066158  0.44627520  0.89542499     1.88900
O3130       O  0.20619598  0.40885729  0.93764629    -0.72900
O3131       O  0.09904107  0.36606099  0.96279760    -0.52200
O3132       O  0.13232074  0.40948018  0.86613654    -0.96900
O3133       O  0.18039136  0.46780528  0.85915872    -0.54100
O3134       O  0.18392476  0.41116819  0.89245013    -0.73400
C3135       C  0.20153795  0.40087913  0.91027908     0.98900
O3136       O  0.21627177  0.43499134  0.51352064    -0.62200
O3137       O  0.16083705  0.54208912  0.98934709    -0.57100
O3138       O  0.22401461  0.46522447  0.96511842    -0.93700
O3139       O  0.21136915  0.50718003  0.94848957    -0.92200
O3140       O  0.12962983  0.52071374  0.53636563    -0.92500
O3141       O  0.15823026  0.47662449  0.55708150    -0.91300
C3142       C  0.22902424  0.48926177  0.95516654     1.17800
H3143       H  0.11421744  0.52324916  0.97972046     0.33700
H3144       H  0.14979804  0.42246302  0.51640315     0.44600
H3145       H  0.19622126  0.47020279  0.91777418     0.38100
H3146       H  0.09911361  0.43450474  0.90472159     0.34600
H3147       H  0.11035895  0.46137421  0.57464156     0.26300
H3148       H  0.08094989  0.36588492  0.97071447     0.32300
H3149       H  0.14587558  0.40517898  0.85097251     0.38200
H3150       H  0.11909113  0.51934226  0.55518645     0.32700
H3151       H  0.17883959  0.54246078  0.99795085     0.31500
H3152       H  0.17045791  0.56443076  0.92708770     0.33200
H3153       H  0.19797102  0.46042893  0.86432763     0.32200
H3154       H  0.16900150  0.46015382  0.55473680     0.36200
H3155       H  0.21513079  0.45279981  0.52324626     0.28900
H3156       H  0.04470952  0.49899104  0.90840924     0.33100
H3157       H  0.11329446  0.47498716  0.85818629     0.36000
H3158       H  0.15836160  0.56002904  0.97932250     0.28600
H3159       H  0.20762243  0.42244746  0.52812921     0.41500
H3160       H  0.08393495  0.39893525  0.51510604     0.31500
H3161       H  0.09418882  0.44341540  0.55248382     0.39200
H3162       H  0.18110387  0.48694169  0.86517438     0.31000
H3163       H  0.09712177  0.36255910  0.94071855     0.31100
H3164       H  0.06377329  0.48762439  0.88368858     0.31300
Zr3165     Zr  0.27001361  0.23094742  0.77019717     2.17500
O3166       O  0.23719081  0.21643904  0.73312974    -0.51000
O3167       O  0.30751920  0.20716601  0.74869412    -0.74200
O3168       O  0.27686465  0.25063599  0.72083081    -0.81000
O3169       O  0.23295138  0.18359471  0.81957510    -0.82800
O3170       O  0.29581251  0.29163452  0.72426290    -0.78400
O3171       O  0.25341348  0.18653951  0.77371050    -0.90000
O3172       O  0.34199639  0.21209564  0.78119213    -0.76000
O3173       O  0.30700211  0.25211662  0.78389429    -0.85500
O3174       O  0.28466355  0.20925977  0.81632525    -0.85200
O3175       O  0.25792404  0.27777685  0.77195339    -0.71900
O3176       O  0.23607010  0.24011400  0.80654008    -0.84100
Zr3177     Zr  0.28438441  0.28690127  0.86671993     2.26400
Zr3178     Zr  0.29973263  0.29769316  0.78099362     2.06300
Zr3179     Zr  0.25154366  0.21866064  0.85300546     2.10000
Zr3180     Zr  0.32480639  0.23120838  0.82641210     1.78800
O3181       O  0.20716372  0.20951070  0.87015780    -0.92900
O3182       O  0.36931631  0.24876041  0.82402620    -0.40700
O3183       O  0.29287013  0.23941138  0.86466966    -0.77300
O3184       O  0.31660609  0.27796303  0.82852624    -0.96000
O3185       O  0.26898480  0.30827542  0.82041862    -0.89300
O3186       O  0.24312317  0.26634039  0.85767240    -0.92100
C3187       C  0.33170349  0.20398643  0.75645649     1.01600
C3188       C  0.23791344  0.17527999  0.79245943     1.14600
C3189       C  0.28609586  0.27212826  0.70857127     1.05300
O3190       O  0.34078425  0.30659420  0.75487849    -0.94300
O3191       O  0.32634548  0.32875213  0.81008250    -0.90000
O3192       O  0.31407974  0.32432340  0.86002370    -0.83200
C3193       C  0.32802987  0.33440974  0.83848659     1.12000
O3194       O  0.19398634  0.27958060  0.77365408    -0.96300
Zr3195     Zr  0.22766913  0.28788755  0.81212687     1.88900
O3196       O  0.25630000  0.32346812  0.88294332    -0.72900
O3197       O  0.28111565  0.34094958  0.76421899    -0.52200
O3198       O  0.21842505  0.32851578  0.78139696    -0.96900
O3199       O  0.18532797  0.27814341  0.83525496    -0.54100
O3200       O  0.22245560  0.32475703  0.84888097    -0.73400
C3201       C  0.23498403  0.33380711  0.87222177     0.98900
O3202       O  0.31674567  0.29224366  0.90764790    -0.62200
O3203       O  0.27022147  0.17792851  0.87669227    -0.57100
O3204       O  0.26934815  0.26519709  0.91389966    -0.93700
O3205       O  0.24995048  0.22429545  0.90888900    -0.92200
O3206       O  0.33433343  0.18375981  0.83790165    -0.92500
O3207       O  0.34798936  0.22727712  0.87524510    -0.91300
C3208       C  0.25824007  0.24389616  0.92519741     1.17800
H3209       H  0.28756955  0.19011433  0.81421372     0.33700
H3210       H  0.33356208  0.28487343  0.83413141     0.44600
H3211       H  0.23118882  0.26968071  0.87413220     0.38100
H3212       H  0.25038320  0.28411967  0.75279000     0.34600
H3213       H  0.38061622  0.23253959  0.82283047     0.26300
H3214       H  0.29365968  0.34803478  0.74894571     0.32300
H3215       H  0.22726821  0.34332628  0.79221803     0.38200
H3216       H  0.35298669  0.18140797  0.83254394     0.32700
H3217       H  0.26789914  0.16374417  0.86134924     0.31500
H3218       H  0.20759735  0.19041061  0.87733626     0.33200
H3219       H  0.18142883  0.29375695  0.84818440     0.32200
H3220       H  0.35046877  0.24609479  0.88180420     0.36200
H3221       H  0.31645933  0.27516982  0.91981053     0.28900
H3222       H  0.24711246  0.20937594  0.71568513     0.33100
H3223       H  0.17993996  0.29292840  0.77725712     0.36000
H3224       H  0.28932591  0.18128796  0.87717656     0.28600
H3225       H  0.33400928  0.29172583  0.89757295     0.41500
H3226       H  0.34677478  0.28869362  0.74810342     0.31500
H3227       H  0.37048755  0.25758307  0.80358312     0.39200
H3228       H  0.18858963  0.26296218  0.84988954     0.31000
H3229       H  0.26546522  0.33616535  0.75199345     0.31100
H3230       H  0.22873892  0.23322305  0.72518107     0.31300
Zr3231     Zr  0.27657145  0.28080133  0.51853603     2.17500
O3232       O  0.31173096  0.29060465  0.98804874    -0.51000
O3233       O  0.24222445  0.30831050  0.49336359    -0.74200
O3234       O  0.26609967  0.26492020  0.97058960    -0.81000
O3235       O  0.30895328  0.33368299  0.56427613    -0.82800
O3236       O  0.24620169  0.22432205  0.97573502    -0.78400
O3237       O  0.29673550  0.32399628  0.51563437    -0.90000
O3238       O  0.20695475  0.30731291  0.52459952    -0.76000
O3239       O  0.23797911  0.26215297  0.53207113    -0.85500
O3240       O  0.26153149  0.30509268  0.56107343    -0.85200
O3241       O  0.28479282  0.23323423  0.52555834    -0.71900
O3242       O  0.30904389  0.27131430  0.55755006    -0.84100
Zr3243     Zr  0.25536092  0.23008571  0.61872211     2.26400
Zr3244     Zr  0.24163253  0.21611927  0.53370598     2.06300
Zr3245     Zr  0.29362448  0.29616707  0.60013915     2.10000
Zr3246     Zr  0.22008623  0.28558649  0.57123782     1.78800
O3247       O  0.33997477  0.30073799  0.61253982    -0.92900
O3248       O  0.17410723  0.27378067  0.56481058    -0.40700
O3249       O  0.25091279  0.27797181  0.61153144    -0.77300
O3250       O  0.22444732  0.23827770  0.57794119    -0.96000
O3251       O  0.27084405  0.20578514  0.57598628    -0.89300
O3252       O  0.29804886  0.24805078  0.61016015    -0.92100
C3253       C  0.21839964  0.31411909  0.49996396     1.01600
C3254       C  0.30733791  0.33930640  0.53507357     1.14600
C3255       C  0.25626694  0.24375345  0.95929493     1.05300
O3256       O  0.19855757  0.20957704  0.51074923    -0.94300
O3257       O  0.21657897  0.18403941  0.56546738    -0.90000
O3258       O  0.22512656  0.19230675  0.61571421    -0.83200
C3259       C  0.21344106  0.17955625  0.59430233     1.12000
O3260       O  0.34945950  0.22777424  0.53250250    -0.96300
Zr3261     Zr  0.31353726  0.22320914  0.56849794     1.88900
O3262       O  0.28074345  0.19339656  0.64111266    -0.72900
O3263       O  0.25738045  0.17262260  0.51636022    -0.52200
O3264       O  0.32151872  0.18169828  0.54123817    -0.96900
O3265       O  0.35503230  0.23019239  0.59527633    -0.54100
O3266       O  0.31496468  0.18743762  0.60917447    -0.73400
C3267       C  0.30137304  0.18091105  0.63293599     0.98900
O3268       O  0.22156114  0.23170837  0.65765463    -0.62200
O3269       O  0.28095728  0.33784806  0.62447481    -0.57100
O3270       O  0.27112862  0.25168102  0.66447193    -0.93700
O3271       O  0.29353698  0.29087966  0.65687190    -0.92200
O3272       O  0.21411689  0.33309617  0.58286978    -0.92500
O3273       O  0.19504311  0.28645826  0.61829032    -0.91300
C3274       C  0.28372994  0.27223262  0.67442675     1.17800
H3275       H  0.25945485  0.32413422  0.55647526     0.33700
H3276       H  0.20725554  0.23163550  0.58308545     0.44600
H3277       H  0.30936289  0.24463497  0.62764519     0.38100
H3278       H  0.29226663  0.22576017  0.50740621     0.34600
H3279       H  0.16524482  0.29092484  0.55877391     0.26300
H3280       H  0.25931892  0.16130800  0.53517327     0.32300
H3281       H  0.30832534  0.16881442  0.54918628     0.38200
H3282       H  0.19490897  0.33591511  0.58216807     0.32700
H3283       H  0.29772156  0.34700216  0.62897253     0.31500
H3284       H  0.34215114  0.32001335  0.61747852     0.33200
H3285       H  0.35186306  0.22497916  0.61686984     0.32200
H3286       H  0.20512443  0.29821895  0.63207797     0.36200
H3287       H  0.22146631  0.25059410  0.66459617     0.28900
H3288       H  0.30526382  0.29964681  0.96902639     0.33100
H3289       H  0.36276926  0.21426383  0.53924120     0.36000
H3290       H  0.27275606  0.34901605  0.60793523     0.28600
H3291       H  0.20475368  0.23009610  0.64637963     0.41500
H3292       H  0.19160149  0.22805883  0.50715763     0.31500
H3293       H  0.17352527  0.26279337  0.54622919     0.39200
H3294       H  0.35721828  0.25003640  0.59540054     0.31000
H3295       H  0.24215135  0.16482121  0.50554668     0.31100
H3296       H  0.31721671  0.27237459  0.98178622     0.31300
C3297       C  0.22472193  0.35758381  0.88718849    -0.13000
C3298       C  0.21571574  0.37770082  0.89879913    -0.14500
C3299       C  0.18758331  0.34852627  0.47312873    -0.13000
C3300       C  0.20295128  0.33095224  0.48001026    -0.14500
C3301       C  0.36272663  0.36455237  0.86371365    -0.13000
C3302       C  0.34852306  0.35137544  0.84824375    -0.14500
C3303       C  0.27930882  0.49638451  0.94189477    -0.13000
C3304       C  0.25627309  0.49548820  0.94876235    -0.14500
C3305       C  0.31836701  0.38610404  0.00606882    -0.13000
C3306       C  0.31763899  0.36427346  0.52150196    -0.14500
C3307       C  0.22385118  0.15336945  0.77970304    -0.13000
C3308       C  0.21063991  0.14031610  0.76263555    -0.14500
C3309       C  0.17927955  0.14429683  0.61611290    -0.13000
C3310       C  0.19458515  0.15956658  0.60388137    -0.14500
C3311       C  0.34847907  0.18793174  0.73824284    -0.13000
C3312       C  0.36200073  0.16871703  0.73297382    -0.14500
C3313       C  0.25295546  0.04657384  0.76798762    -0.13000
C3314       C  0.22937581  0.04603877  0.76299409    -0.14500
C3315       C  0.31439441  0.13802295  0.66804495    -0.13000
C3316       C  0.30919492  0.15768266  0.65187343    -0.14500
C3317       C  0.01828470  0.41212098  0.88997530    -0.13000
C3318       C  0.03483213  0.41663010  0.90867045    -0.14500
C3319       C  0.83368959  0.28396622  0.91882351    -0.13000
C3320       C  0.85260031  0.29191352  0.90466032    -0.14500
C3321       C  0.80480347  0.33831707  0.79479581    -0.13000
C3322       C  0.78677941  0.32621806  0.78382364    -0.14500
C3323       C  0.01346484  0.10054111  0.67134484    -0.13000
C3324       C  0.99361543  0.10102036  0.68547801    -0.14500
C3325       C  0.80372648  0.19417375  0.86326109    -0.13000
C3326       C  0.82088814  0.18163620  0.85147783    -0.14500
C3327       C  0.96179678  0.24698232  0.78896557    -0.13000
C3328       C  0.96012504  0.27046138  0.79517379    -0.14500
C3329       C  0.85449604  0.23309804  0.73463938    -0.13000
C3330       C  0.83592875  0.24446064  0.72282355    -0.14500
C3331       C  0.49769969  0.04949782  0.66650327    -0.13000
C3332       C  0.48183243  0.04499685  0.68539509    -0.14500
C3333       C  0.62936011  0.18461841  0.58593743    -0.13000
C3334       C  0.64491396  0.19669243  0.60158760    -0.14500
C3335       C  0.61648275  0.14662168  0.96785172    -0.13000
C3336       C  0.63130019  0.16484572  0.96341216    -0.14500
C3337       C  0.47521160  0.39315165  0.48775568    -0.13000
C3338       C  0.47729072  0.40798158  0.96994931    -0.14500
C3339       C  0.58725202  0.31434781  0.68745145    -0.13000
C3340       C  0.60557191  0.29974793  0.69088412    -0.14500
C3341       C  0.50403132  0.23305760  0.57242974    -0.13000
C3342       C  0.50810316  0.20905829  0.56881140    -0.14500
C3343       C  0.61050906  0.28529281  0.55593453    -0.13000
C3344       C  0.62957063  0.28100078  0.54011836    -0.14500
C3345       C  0.00863776  0.51229457  0.02397636    -0.13000
C3346       C  0.03183336  0.50588895  0.01998297    -0.14500
C3347       C  0.90650806  0.45860759  0.92177619    -0.13000
C3348       C  0.89322898  0.45820910  0.89913513    -0.14500
C3349       C  0.80490189  0.63163315  0.87740719    -0.13000
C3350       C  0.81340076  0.61237239  0.89230534    -0.14500
C3351       C  0.82943410  0.67122900  0.50614837    -0.13000
C3352       C  0.84414354  0.65446031  0.49634288    -0.14500
C3353       C  0.51064029  0.50420189  0.88790824    -0.13000
C3354       C  0.53388359  0.50963953  0.89329519    -0.14500
C3355       C  0.60001045  0.44692353  0.53569350    -0.13000
C3356       C  0.58424480  0.44244475  0.55512753    -0.14500
C3357       C  0.69745397  0.66808770  0.94017761    -0.13000
C3358       C  0.68495697  0.65137704  0.95372533    -0.14500
C3359       C  0.75657966  0.49684545  0.97239527    -0.13000
C3360       C  0.78003242  0.49749218  0.97705749    -0.14500
C3361       C  0.72649856  0.62302132  0.56934671    -0.13000
C3362       C  0.71703662  0.60253128  0.05323427    -0.14500
C3363       C  0.98613709  0.00346219  0.68336815    -0.13000
C3364       C  0.00923980  0.01072842  0.68494389    -0.14500
C3365       C  0.90170468  0.00424126  0.79493709    -0.13000
C3366       C  0.89148201  0.02597834  0.79368897    -0.14500
C3367       C  0.78883184  0.85504254  0.73435879    -0.13000
C3368       C  0.77964068  0.83670548  0.74967102    -0.14500
C3369       C  0.82391533  0.87244033  0.60544787    -0.13000
C3370       C  0.80933949  0.85505230  0.59770745    -0.14500
C3371       C  0.51096994  0.99944334  0.77542308    -0.13000
C3372       C  0.48725844  0.00418194  0.77881007    -0.14500
C3373       C  0.61216549  0.00161840  0.61357602    -0.13000
C3374       C  0.60863736  0.00538575  0.58651647    -0.14500
C3375       C  0.64646032  0.84194185  0.80630807    -0.13000
C3376       C  0.66197111  0.82560318  0.81611295    -0.14500
C3377       C  0.76202899  0.97080508  0.73799532    -0.13000
C3378       C  0.73826691  0.97108891  0.73922205    -0.14500
C3379       C  0.69197399  0.85054762  0.68502467    -0.13000
C3380       C  0.70147517  0.83148840  0.67155854    -0.14500
C3381       C  0.96167980  0.51470297  0.76180398    -0.13000
C3382       C  0.95427769  0.49131564  0.76444102    -0.14500
C3383       C  0.96900251  0.61094266  0.90023201    -0.13000
C3384       C  0.97012364  0.60137414  0.92548879    -0.14500
C3385       C  0.10413836  0.53760639  0.87186865    -0.13000
C3386       C  0.09114064  0.53927424  0.84901017    -0.14500
C3387       C  0.11879558  0.69679961  0.81818440    -0.13000
C3388       C  0.13689955  0.70222510  0.83522308    -0.14500
C3389       C  0.11878594  0.66779156  0.69214714    -0.13000
C3390       C  0.10358179  0.64991048  0.69577918    -0.14500
C3391       C  0.97760552  0.99395412  0.82293960    -0.13000
C3392       C  0.96998173  0.01749781  0.82296511    -0.14500
C3393       C  0.07528979  0.02938055  0.82755849    -0.13000
C3394       C  0.07341321  0.00703520  0.83813368    -0.14500
C3395       C  0.99798085  0.92418595  0.68597942    -0.13000
C3396       C  0.97927932  0.92159501  0.66976858    -0.14500
C3397       C  0.13723660  0.82410068  0.91617758    -0.13000
C3398       C  0.12128554  0.84108952  0.90904981    -0.14500
C3399       C  0.01619961  0.76874483  0.78427216    -0.13000
C3400       C  0.01329345  0.74458155  0.78165400    -0.14500
C3401       C  0.14880769  0.78494047  0.77566948    -0.13000
C3402       C  0.13264611  0.79791994  0.78889255    -0.14500
C3403       C  0.50986705  0.90400721  0.69864448    -0.13000
C3404       C  0.49524182  0.89693700  0.67918612    -0.14500
C3405       C  0.34836157  0.93729740  0.65498335    -0.13000
C3406       C  0.34815976  0.94762032  0.67940412    -0.14500
C3407       C  0.46168872  0.96982189  0.53657977    -0.13000
C3408       C  0.47253834  0.99158302  0.53268019    -0.14500
C3409       C  0.35643164  0.75735706  0.64811894    -0.13000
C3410       C  0.33888435  0.74447868  0.65938489    -0.14500
C3411       C  0.29592224  0.79168908  0.52871107    -0.13000
C3412       C  0.31227068  0.80497608  0.54087952    -0.14500
C3413       C  0.44430990  0.48527037  0.63309951    -0.13000
C3414       C  0.45039868  0.46127191  0.63117364    -0.14500
C3415       C  0.54094154  0.57616435  0.02952539    -0.13000
C3416       C  0.52440913  0.57917827  0.54968365    -0.14500
C3417       C  0.40941573  0.54123028  0.48701089    -0.13000
C3418       C  0.40048510  0.53324276  0.51054025    -0.14500
C3419       C  0.29629596  0.63868637  0.57890791    -0.13000
C3420       C  0.27914566  0.65278601  0.58822861    -0.14500
C3421       C  0.44314612  0.71960644  0.61085416    -0.13000
C3422       C  0.44747398  0.74346272  0.60940091    -0.14500
C3423       C  0.35144391  0.68831280  0.49392283    -0.13000
C3424       C  0.33419271  0.69616248  0.47626367    -0.14500
loop_ 
_geom_bond_atom_site_label_1 
_geom_bond_atom_site_label_2 
_geom_bond_distance 
_geom_bond_site_symmetry_2 
_ccdc_geom_bond_type 
Zr1           O2   2.439       .  S
Zr1           O3   2.516       .  S
Zr1           O4   2.435       .  S
Zr1           O7   2.382       .  S
Zr1           O9   2.361       .  S
Zr1          O10   2.371       .  S
Zr1          O11   2.436       .  S
Zr1          O12   2.436       .  S
O2           H58   0.990       .  S
O2           H66   0.990       .  S
O3           C23   1.300       .  A
O4           C25   1.284       .  A
O5          Zr15   2.444       .  S
O5           C24   1.284       .  A
O6          Zr14   2.400       .  S
O6           C25   1.274       .  A
O7           C24   1.275       .  A
O8          Zr16   2.414   1_556  S
O8           C23   1.277   1_556  A
O9          Zr14   2.402       .  S
O9          Zr16   2.364       .  S
O10         Zr15   2.377       .  S
O10         Zr16   2.377       .  S
O10          H45   0.964       .  S
O11         Zr14   2.382       .  S
O11         Zr31   2.447       .  S
O11          H48   0.966       .  S
O12         Zr15   2.387       .  S
O12         Zr31   2.449       .  S
Zr13         O38   2.426       .  S
Zr13         O32   2.388       .  S
Zr13         O40   2.423       .  S
Zr13         O28   2.417       .  S
Zr13         O19   2.402       .  S
Zr13         O20   2.400       .  S
Zr13         O21   2.371       .  S
Zr13         O22   2.399       .  S
Zr14         O33   2.433       .  S
Zr14         O26   2.437       .  S
Zr14         O27   2.395       .  S
Zr14         O20   2.405       .  S
Zr14         O21   2.386       .  S
Zr15         O17   2.436       .  S
Zr15         O39   2.433       .  S
Zr15         O41   2.433       .  S
Zr15         O19   2.401       .  S
Zr15         O22   2.390       .  S
Zr16         O42   2.435   1_554  S
Zr16         O43   2.438   1_554  S
Zr16         O18   2.437       .  S
Zr16         O19   2.372       .  S
Zr16         O20   2.380       .  S
O17          H54   0.990       .  S
O18          H63   0.990   1_554  S
O18        H1761   0.990       .  S
O20          H46   0.963       .  S
O21         Zr31   2.370       .  S
O22         Zr31   2.328       .  S
O22          H47   0.964       .  S
C23        C1711   1.464   1_554  S
C24        C1707   1.418       .  S
C25        C1709   1.420       .  S
O26          H62   0.991       .  S
O27          C29   1.274       .  A
O28          C29   1.279       .  A
C29        C1704   1.406       .  S
O30         Zr31   2.440       .  S
O30          H59   0.990       .  S
Zr31         O34   2.437       .  S
Zr31         O35   2.437       .  S
Zr31         O36   2.565       .  S
O32          C37   1.275       .  A
O33          H50   0.990       .  S
O33          H65   0.990       .  S
O34          H51   0.990       .  S
O35          H55   0.990       .  S
O35          H64   0.990       .  S
O36          C37   1.310       .  A
C37        C1701   1.479       .  S
O38          H57   0.989       .  S
O38          H61   0.989       .  S
O39          H53   0.990       .  S
O39          H60   0.990       .  S
O40          C44   1.266       .  A
O41          C44   1.273       .  A
O42          H52   0.990       .  S
O43        H1768   0.990       .  S
C44        C1706   1.407       .  S
H49        O1730   0.991       .  S
H56        O1755   0.990       .  S
Zr67       O1780   2.439       .  S
Zr67         O69   2.471       .  S
Zr67         O70   2.393       .  S
Zr67         O73   2.365       .  S
Zr67         O75   2.366       .  S
Zr67         O76   2.376       .  S
Zr67         O77   2.408       .  S
Zr67         O78   2.414       .  S
O68       Zr1779   2.438       .  S
O68         H124   0.990       .  S
O68         H132   0.990       .  S
O69          C89   1.291       .  A
O70          C91   1.271       .  A
O71         Zr81   2.466       .  S
O71          C90   1.287       .  A
O72         Zr80   2.441       .  S
O72          C91   1.281       .  A
O73          C90   1.270       .  A
O74         Zr82   2.392       .  S
O74          C89   1.274       .  A
O75         Zr80   2.383       .  S
O75         Zr82   2.360       .  S
O76         Zr81   2.392       .  S
O76         Zr82   2.374       .  S
O76         H111   0.965       .  S
O77         Zr80   2.391       .  S
O77         Zr97   2.422       .  S
O77         H114   0.966       .  S
O78         Zr81   2.389       .  S
O78         Zr97   2.428       .  S
Zr79        O104   2.436       .  S
Zr79         O98   2.440       .  S
Zr79        O106   2.424       .  S
Zr79         O94   2.410       .  S
Zr79         O85   2.372       .  S
Zr79         O86   2.420       .  S
Zr79         O87   2.372       .  S
Zr79         O88   2.387       .  S
Zr80         O99   2.435       .  S
Zr80         O92   2.437       .  S
Zr80         O93   2.412       .  S
Zr80         O86   2.407       .  S
Zr80         O87   2.403       .  S
Zr81         O83   2.436       .  S
Zr81        O105   2.441       .  S
Zr81        O107   2.444       .  S
Zr81         O85   2.369       .  S
Zr81         O88   2.417       .  S
Zr82        O108   2.436       .  S
Zr82        O109   2.437       .  S
Zr82         O84   2.439       .  S
Zr82         O85   2.356       .  S
Zr82         O86   2.373       .  S
O83         H120   0.990       .  S
O84         H115   0.990       .  S
O84         H129   0.990       .  S
O86         H112   0.963       .  S
O87         Zr97   2.382       .  S
O88         Zr97   2.391       .  S
O88         H113   0.966       .  S
C89        C1697   1.438       .  S
C90        C1700   1.418       .  S
C91        C1710   1.417       .  S
O92         H128   0.991       .  S
O93          C95   1.277       .  A
O94          C95   1.276       .  A
C95        C1692   1.404       .  S
O96       Zr1809   2.440       .  S
O96         H125   0.991       .  S
Zr97        O100   2.438       .  S
Zr97       O1808   2.440   1_554  S
Zr97       O1813   2.438   1_554  S
Zr97        O102   2.471       .  S
O98         C103   1.281       .  A
O99         H116   0.990       .  S
O99         H131   0.990       .  S
O100       H1829   0.990       .  S
O101      Zr1809   2.438       .  S
O101        H121   0.990       .  S
O101        H130   0.990       .  S
O102        C103   1.288       .  A
C103       C1695   1.465       .  S
O104        H123   0.991       .  S
O104        H127   0.990       .  S
O105        H119   0.990       .  S
O105        H126   0.991       .  S
O106        C110   1.281       .  A
O107        C110   1.283       .  A
O108        H118   0.990       .  S
O109        H122   0.990       .  S
C110       C1693   1.414       .  S
H117       O1812   0.990       .  S
Zr133       O134   2.438       .  S
Zr133       O135   2.459       .  S
Zr133       O136   2.421       .  S
Zr133       O139   2.387       .  S
Zr133       O141   2.369       .  S
Zr133       O142   2.379       .  S
Zr133       O143   2.406       .  S
Zr133       O144   2.413       .  S
O134        H190   0.990       .  S
O134        H198   0.990       .  S
O135        C155   1.288       .  A
O136        C157   1.280       .  A
O137       Zr147   2.451       .  S
O137        C156   1.286       .  A
O138       Zr146   2.457       .  S
O138        C157   1.286       .  A
O139        C156   1.275       .  A
O140       Zr148   2.385       .  S
O140        C155   1.273       .  A
O141       Zr146   2.375       .  S
O141       Zr148   2.388       .  S
O142       Zr147   2.382       .  S
O142       Zr148   2.360       .  S
O142        H177   0.965       .  S
O143       Zr146   2.385       .  S
O143       Zr163   2.427       .  S
O143        H180   0.966       .  S
O144       Zr147   2.396       .  S
O144       Zr163   2.428       .  S
Zr145       O170   2.432       .  S
Zr145       O164   2.436       .  S
Zr145       O172   2.397       .  S
Zr145       O160   2.433       .  S
Zr145       O151   2.396       .  S
Zr145       O152   2.399       .  S
Zr145       O153   2.381       .  S
Zr145       O154   2.381       .  S
Zr146       O165   2.437   1_455  S
Zr146       O158   2.434       .  S
Zr146       O159   2.400       .  S
Zr146       O152   2.408       .  S
Zr146       O153   2.404       .  S
Zr147       O149   2.433       .  S
Zr147       O171   2.437       .  S
Zr147       O173   2.438       .  S
Zr147       O151   2.405       .  S
Zr147       O154   2.385       .  S
Zr148       O174   2.435       .  S
Zr148       O175   2.437       .  S
Zr148       O150   2.438       .  S
Zr148       O151   2.387       .  S
Zr148       O152   2.367       .  S
O149        H186   0.990       .  S
O150        H181   0.990       .  S
O150        H195   0.990       .  S
O152        H178   0.965       .  S
O153       Zr163   2.367       .  S
O154       Zr163   2.345       .  S
O154        H179   0.963       .  S
C155       C1690   1.427       .  S
C156       C1686   1.422       .  S
C157       C1687   1.446       .  S
O158        H194   0.990       .  S
O159        C161   1.278       .  A
O160        C161   1.284       .  A
C161       C1683   1.413   1_455  S
O162       Zr163   2.435   1_655  S
O162        H191   0.990       .  S
Zr163       O166   2.434   1_455  S
Zr163       O167   2.435       .  S
Zr163       O168   2.520   1_455  S
O164        C169   1.284   1_455  A
O165        H182   0.990       .  S
O165        H197   0.990       .  S
O166        H183   0.990       .  S
O167        H187   0.990   1_455  S
O167        H196   0.990       .  S
O168        C169   1.299       .  A
C169       C1679   1.480       .  S
O170        H189   0.989       .  S
O170        H193   0.990       .  S
O171        H185   0.990       .  S
O171        H192   0.990       .  S
O172        C176   1.279       .  A
O173        C176   1.284       .  A
O174        H184   0.990       .  S
O175        H188   0.990       .  S
C176       C1682   1.418   1_565  S
Zr199       O200   2.441       .  S
Zr199       O201   2.498       .  S
Zr199       O202   2.422       .  S
Zr199       O205   2.392       .  S
Zr199       O207   2.373       .  S
Zr199       O208   2.400       .  S
Zr199       O209   2.428       .  S
Zr199       O210   2.429       .  S
O200        H256   0.990       .  S
O200        H264   0.990       .  S
O201        C221   1.290       .  A
O202        C223   1.279       .  A
O203       Zr213   2.415       .  S
O203        C222   1.269       .  A
O204       Zr212   2.454   1_455  S
O204        C223   1.285       .  A
O205        C222   1.263       .  A
O206       Zr214   2.373       .  S
O206        C221   1.263       .  A
O207       Zr212   2.382   1_455  S
O207       Zr214   2.371       .  S
O208       Zr213   2.423       .  S
O208       Zr214   2.397       .  S
O208        H243   0.966       .  S
O209       Zr212   2.387   1_455  S
O209       Zr229   2.449   1_455  S
O209        H246   0.966   1_455  S
O210       Zr213   2.397       .  S
O210       Zr229   2.413   1_455  S
Zr211       O236   2.438       .  S
Zr211       O230   2.428   1_455  S
Zr211       O238   2.452       .  S
Zr211       O226   2.423   1_455  S
Zr211       O217   2.344       .  S
Zr211       O218   2.417       .  S
Zr211       O219   2.384   1_455  S
Zr211       O220   2.390       .  S
Zr212       O231   2.432       .  S
Zr212       O224   2.436       .  S
Zr212       O225   2.408       .  S
Zr212       O218   2.417   1_655  S
Zr212       O219   2.412       .  S
Zr213       O215   2.439       .  S
Zr213       O237   2.440       .  S
Zr213       O239   2.435       .  S
Zr213       O217   2.347       .  S
Zr213       O220   2.392       .  S
Zr214       O240   2.437       .  S
Zr214       O241   2.436       .  S
Zr214       O216   2.436       .  S
Zr214       O217   2.337       .  S
Zr214       O218   2.371       .  S
O215        H252   0.991       .  S
O216        H247   0.990       .  S
O216        H261   0.990       .  S
O218        H244   0.964       .  S
O219       Zr229   2.382       .  S
O220       Zr229   2.388   1_455  S
O220        H245   0.963       .  S
C221       C1675   1.443       .  S
C222       C1678   1.408       .  S
C223       C1688   1.445       .  S
O224        H260   0.991       .  S
O225        C227   1.277       .  A
O226        C227   1.280       .  A
C227       C1671   1.407       .  S
O228       Zr229   2.435       .  S
O228        H257   0.990       .  S
Zr229       O232   2.435       .  S
Zr229       O233   2.438   1_655  S
Zr229       O234   2.490       .  S
O230        C235   1.279       .  A
O231        H248   0.990       .  S
O231        H263   0.990       .  S
O232        H249   0.990       .  S
O233        H253   0.990       .  S
O233        H262   0.990       .  S
O234        C235   1.292       .  A
C235       C1669   1.459       .  S
O236        H255   0.991       .  S
O236        H259   0.989   1_455  S
O237        H251   0.990       .  S
O237        H258   0.991       .  S
O238        C242   1.288       .  A
O239        C242   1.282       .  A
O240        H250   0.990       .  S
O241        H254   0.990       .  S
C242       C1674   1.413       .  S
Zr265       O266   2.436       .  S
Zr265       O267   2.405       .  S
Zr265       O268   2.437       .  S
Zr265       O271   2.452       .  S
Zr265       O273   2.371       .  S
Zr265       O274   2.395       .  S
Zr265       O275   2.407       .  S
Zr265       O276   2.375       .  S
O266        H322   0.990       .  S
O266        H330   0.990       .  S
O267        C287   1.277       .  A
O268        C289   1.287       .  A
O269       Zr279   2.418       .  S
O269        C288   1.280       .  A
O270       Zr278   2.483       .  S
O270        C289   1.294       .  A
O271        C288   1.289       .  A
O272       Zr280   2.483       .  S
O272        C287   1.292       .  A
O273       Zr278   2.403       .  S
O273       Zr280   2.353       .  S
O274       Zr279   2.410       .  S
O274       Zr280   2.378       .  S
O274        H309   0.966       .  S
O275       Zr278   2.424       .  S
O275       Zr295   2.392       .  S
O275        H312   0.966       .  S
O276       Zr279   2.406       .  S
O276       Zr295   2.354       .  S
Zr277      O2014   2.439       .  S
Zr277       O292   2.366       .  S
Zr277      O2008   2.441       .  S
Zr277      O2016   2.370       .  S
Zr277       O283   2.396       .  S
Zr277       O284   2.402       .  S
Zr277       O285   2.372       .  S
Zr277       O286   2.364       .  S
Zr278       O297   2.436       .  S
Zr278       O290   2.434       .  S
Zr278       O291   2.533       .  S
Zr278       O284   2.396       .  S
Zr278       O285   2.374       .  S
Zr279       O281   2.436       .  S
Zr279      O2015   2.435       .  S
Zr279      O2017   2.501       .  S
Zr279       O283   2.380       .  S
Zr279       O286   2.370       .  S
Zr280       O306   2.436       .  S
Zr280       O307   2.434       .  S
Zr280       O282   2.437       .  S
Zr280       O283   2.422       .  S
Zr280       O284   2.427       .  S
O281       H2030   0.990       .  S
O282        H313   0.990       .  S
O282        H327   0.990       .  S
O284        H310   0.967       .  S
O285       Zr295   2.373       .  S
O286       Zr295   2.393       .  S
O286       H2023   0.966       .  S
C287       C1676   1.449       .  S
C288       C1685   1.428       .  S
C289        C355   1.490       .  S
O290        H326   0.990       .  S
O291        C293   1.304       .  A
O292        C293   1.270       .  A
C293       C3424   1.458       .  S
O294       Zr295   2.436       .  S
O294        H323   0.990       .  S
Zr295       O298   2.435       .  S
Zr295       O299   2.438       .  S
Zr295       O300   2.375       .  S
O296      Zr1989   2.453   1_554  S
O296        C301   1.286       .  A
O297        H314   0.990       .  S
O297        H329   0.990       .  S
O298        H315   0.990       .  S
O299        H319   0.990       .  S
O299        H328   0.990       .  S
O300       C2013   1.272       .  A
C301       O2012   1.273   1_554  A
C301       C1699   1.418       .  S
O302      Zr1989   2.440   1_554  S
O302        H321   0.990       .  S
O302        H325   0.990   1_554  S
O303      Zr1991   2.434       .  S
O303        H317   0.990       .  S
O303       H2036   0.990       .  S
O304      Zr1989   2.369   1_554  S
O304        C308   1.274       .  A
O305      Zr1991   2.487   1_554  S
O305        C308   1.291       .  A
O306        H316   0.990       .  S
O307        H320   0.990       .  S
C308        C374   1.472       .  S
H311       O1998   0.964       .  S
H318       O1993   0.990       .  S
H324       O2015   0.990       .  S
Zr331       O332   2.437       .  S
Zr331       O333   2.391       .  S
Zr331       O334   2.436       .  S
Zr331       O337   2.429       .  S
Zr331       O339   2.369       .  S
Zr331       O340   2.396       .  S
Zr331       O341   2.399       .  S
Zr331       O342   2.377       .  S
O332        H388   0.990       .  S
O332        H396   0.990       .  S
O333        C353   1.275       .  A
O334        C355   1.287       .  A
O335       Zr345   2.398       .  S
O335        C354   1.276       .  A
O336       Zr344   2.479       .  S
O336        C355   1.292       .  A
O337        C354   1.285       .  A
O338       Zr346   2.465       .  S
O338        C353   1.290       .  A
O339       Zr344   2.389       .  S
O339       Zr346   2.356       .  S
O340       Zr345   2.391       .  S
O340       Zr346   2.375       .  S
O340        H375   0.965       .  S
O341       Zr344   2.409       .  S
O341       Zr361   2.403       .  S
O341        H378   0.966       .  S
O342       Zr345   2.398       .  S
O342       Zr361   2.357       .  S
Zr343       O368   2.441       .  S
Zr343       O362   2.440       .  S
Zr343       O370   2.405       .  S
Zr343       O358   2.384       .  S
Zr343       O349   2.397       .  S
Zr343       O350   2.409       .  S
Zr343       O351   2.380       .  S
Zr343       O352   2.361       .  S
Zr344       O363   2.435       .  S
Zr344       O356   2.435       .  S
Zr344       O357   2.482       .  S
Zr344       O350   2.402       .  S
Zr344       O351   2.391       .  S
Zr345       O347   2.436       .  S
Zr345       O369   2.436       .  S
Zr345       O371   2.456       .  S
Zr345       O349   2.382       .  S
Zr345       O352   2.379       .  S
Zr346       O372   2.434       .  S
Zr346       O373   2.435       .  S
Zr346       O348   2.437       .  S
Zr346       O349   2.416       .  S
Zr346       O350   2.414       .  S
O347        H384   0.990       .  S
O348        H379   0.990       .  S
O348        H393   0.990       .  S
O350        H376   0.966       .  S
O351       Zr361   2.378       .  S
O352       Zr361   2.389       .  S
O352        H377   0.966       .  S
C353       C1689   1.431       .  S
C354       C1677   1.409       .  S
O356        H392   0.990       .  S
O357        C359   1.293       .  A
O358        C359   1.274       .  A
C359       C1698   1.438       .  S
O360       Zr361   2.435       .  S
O360        H389   0.990       .  S
Zr361       O364   2.435       .  S
Zr361       O365   2.440       .  S
Zr361       O366   2.392       .  S
O362        C367   1.284       .  A
O363        H380   0.990       .  S
O363        H395   0.990       .  S
O364        H381   0.990       .  S
O365        H385   0.990       .  S
O365        H394   0.990       .  S
O366        C367   1.274       .  A
C367       C1708   1.420       .  S
O368        H387   0.990       .  S
O368        H391   0.990       .  S
O369        H383   0.990       .  S
O369        H390   0.990       .  S
O370        C374   1.281       .  A
O371        C374   1.284       .  A
O372        H382   0.990       .  S
O373        H386   0.990       .  S
Zr397       O398   2.441       .  S
Zr397       O399   2.471       .  S
Zr397       O400   2.399       .  S
Zr397       O403   2.433       .  S
Zr397       O405   2.370       .  S
Zr397       O406   2.382       .  S
Zr397       O407   2.425       .  S
Zr397       O408   2.280       .  S
O398        H454   0.991   1_565  S
O398        H462   0.990       .  S
O399        C419   1.285       .  A
O400        C421   1.279       .  A
O401       Zr411   2.451   1_545  S
O401        C420   1.286   1_545  A
O402       Zr410   2.421       .  S
O402        C421   1.282       .  A
O403        C420   1.285       .  A
O404       Zr412   2.522       .  S
O404        C419   1.298       .  A
O405       Zr410   2.403       .  S
O405       Zr412   2.361       .  S
O406       Zr411   2.432       .  S
O406       Zr412   2.391       .  S
O406        H441   0.966   1_565  S
O407       Zr410   2.416       .  S
O407       Zr427   2.382       .  S
O407        H444   0.964       .  S
O408       Zr411   2.267       .  S
O408       Zr427   2.286       .  S
Zr409       O434   2.444       .  S
Zr409       O428   2.506       .  S
Zr409       O436   2.413       .  S
Zr409       O424   2.374       .  S
Zr409       O415   2.426       .  S
Zr409       O416   2.424       .  S
Zr409       O417   2.367       .  S
Zr409       O418   2.374       .  S
Zr410       O429   2.436       .  S
Zr410       O422   2.435       .  S
Zr410       O423   2.459       .  S
Zr410       O416   2.391       .  S
Zr410       O417   2.389       .  S
Zr411       O413   2.441   1_565  S
Zr411       O435   2.440   1_565  S
Zr411       O437   2.488       .  S
Zr411       O415   2.382       .  S
Zr411       O418   2.401       .  S
Zr412       O438   2.435   1_565  S
Zr412       O439   2.435       .  S
Zr412       O414   2.437       .  S
Zr412       O415   2.450       .  S
Zr412       O416   2.423       .  S
O413        H450   0.990       .  S
O414        H445   0.990       .  S
O414        H459   0.990       .  S
O416        H442   0.966       .  S
O417       Zr427   2.371       .  S
O418       Zr427   2.380       .  S
O418        H443   0.965       .  S
C419       C1659   1.502       .  S
C420       C1661   1.432   1_565  S
C421       C1691   1.401       .  S
O422        H458   0.990       .  S
O423        C425   1.287       .  A
O424        C425   1.272       .  A
C425       C1663   1.422       .  S
O426       Zr427   2.434       .  S
O426        H455   0.990       .  S
Zr427       O430   2.440       .  S
Zr427       O431   2.438       .  S
Zr427       O432   2.410       .  S
O428        C433   1.297       .  A
O429        H446   0.990       .  S
O429        H461   0.990       .  S
O430        H447   0.990       .  S
O431        H451   0.990       .  S
O431        H460   0.990       .  S
O432        C433   1.276       .  A
C433       C1667   1.462       .  S
O434        H453   0.991       .  S
O434        H457   0.990       .  S
O435        H449   0.990       .  S
O435        H456   0.990       .  S
O436        C440   1.279       .  A
O437        C440   1.292       .  A
O438        H448   0.990       .  S
O439        H452   0.990       .  S
C440       C1666   1.451       .  S
Zr463       O464   2.411       .  S
Zr463       O465   2.386       .  S
Zr463       O466   2.384       .  S
Zr463       O469   2.424       .  S
Zr463       O471   2.377       .  S
Zr463       O472   2.415       .  S
Zr463       O473   2.424       .  S
Zr463       O474   2.401       .  S
O464        H520   0.989       .  S
O464        H528   0.988       .  S
O465        C485   1.276       .  A
O466        C487   1.263       .  A
O467       Zr477   2.411       .  S
O467        C486   1.267       .  A
O468       Zr476   2.453       .  S
O468        C487   1.256       .  A
O469        C486   1.271       .  A
O470       Zr478   2.576       .  S
O470        C485   1.314       .  A
O471       Zr476   2.442       .  S
O471       Zr478   2.303       .  S
O472       Zr477   2.424       .  S
O472       Zr478   2.367       .  S
O472        H507   0.965       .  S
O473       Zr476   2.472       .  S
O473       Zr493   2.378       .  S
O473        H510   0.969       .  S
O474       Zr477   2.414       .  S
O474       Zr493   2.373       .  S
Zr475       O500   2.442       .  S
Zr475       O494   2.497       .  S
Zr475       O502   2.405       .  S
Zr475       O490   2.377       .  S
Zr475       O481   2.408       .  S
Zr475       O482   2.430       .  S
Zr475       O483   2.376       .  S
Zr475       O484   2.367       .  S
Zr476       O495   2.436       .  S
Zr476       O488   2.435       .  S
Zr476       O489   2.440       .  S
Zr476       O482   2.399       .  S
Zr476       O483   2.386       .  S
Zr477       O479   2.435       .  S
Zr477       O501   2.430   1_565  S
Zr477       O503   2.481       .  S
Zr477       O481   2.381       .  S
Zr477       O484   2.371       .  S
Zr478       O504   2.433   1_565  S
Zr478       O505   2.436   1_565  S
Zr478       O480   2.435       .  S
Zr478       O481   2.445       .  S
Zr478       O482   2.446       .  S
O479        H516   0.990       .  S
O480        H511   0.990   1_565  S
O480        H525   0.990       .  S
O482        H508   0.966       .  S
O483       Zr493   2.386       .  S
O484       Zr493   2.398       .  S
O484        H509   0.965       .  S
C485       C1651   1.486   1_565  S
C486       C1653   1.417   1_565  S
C487       C1684   1.414       .  S
O488        H524   0.990       .  S
O489        C491   1.284       .  A
O490        C491   1.272       .  A
C491       C1657   1.415       .  S
O492       Zr493   2.435       .  S
O492        H521   0.990       .  S
Zr493       O496   2.436       .  S
Zr493       O497   2.439       .  S
Zr493       O498   2.371       .  S
O494        C499   1.295       .  A
O495        H512   0.990       .  S
O495        H527   0.990       .  S
O496        H513   0.990       .  S
O497        H517   0.990       .  S
O497        H526   0.990       .  S
O498        C499   1.270       .  A
C499       C1655   1.439       .  S
O500        H519   0.990       .  S
O500        H523   0.990       .  S
O501        H515   0.989       .  S
O501        H522   0.990       .  S
O502        C506   1.276       .  A
O503        C506   1.291       .  A
O504        H514   0.990       .  S
O505        H518   0.990       .  S
C506       C1665   1.450       .  S
Zr529      O2242   2.444       .  S
Zr529       O531   2.460       .  S
Zr529       O532   2.411       .  S
Zr529       O535   2.410       .  S
Zr529       O537   2.372       .  S
Zr529       O538   2.390       .  S
Zr529       O539   2.423       .  S
Zr529       O540   2.416       .  S
O530      Zr2241   2.444   1_554  S
O530        H586   0.991       .  S
O530        H594   0.990       .  S
O531        C551   1.286       .  A
O532        C553   1.278       .  A
O533       Zr543   2.438       .  S
O533        C552   1.278       .  A
O534       Zr542   2.423       .  S
O534        C553   1.280       .  A
O535        C552   1.267       .  A
O536       Zr544   2.507       .  S
O536        C551   1.295       .  A
O537       Zr542   2.409       .  S
O537       Zr544   2.376       .  S
O538       Zr543   2.431       .  S
O538       Zr544   2.367       .  S
O538        H573   0.966       .  S
O539       Zr542   2.405       .  S
O539       Zr559   2.378       .  S
O539        H576   0.962       .  S
O540       Zr543   2.396       .  S
O540       Zr559   2.373       .  S
Zr541       O566   2.438       .  S
Zr541       O560   2.468       .  S
Zr541       O568   2.413       .  S
Zr541       O556   2.382       .  S
Zr541       O547   2.414       .  S
Zr541       O548   2.419       .  S
Zr541       O549   2.361       .  S
Zr541       O550   2.374       .  S
Zr542       O561   2.439       .  S
Zr542       O554   2.434       .  S
Zr542       O555   2.446       .  S
Zr542       O548   2.397       .  S
Zr542       O549   2.378       .  S
Zr543       O545   2.437       .  S
Zr543       O567   2.436       .  S
Zr543       O569   2.481       .  S
Zr543       O547   2.393       .  S
Zr543       O550   2.402       .  S
Zr544       O570   2.436       .  S
Zr544       O571   2.436       .  S
Zr544       O546   2.436       .  S
Zr544       O547   2.441       .  S
Zr544       O548   2.421       .  S
O545        H582   0.990       .  S
O546        H577   0.990       .  S
O546        H591   0.989       .  S
O548        H574   0.966       .  S
O549       Zr559   2.364       .  S
O550       Zr559   2.372       .  S
O550        H575   0.964       .  S
C551       C1642   1.491       .  S
C552       C3355   1.415       .  S
C553       C1703   1.409       .  S
O554        H590   0.990       .  S
O555        C557   1.286       .  A
O556        C557   1.274       .  A
C557       C1646   1.419       .  S
O558      Zr2271   2.437       .  S
O558        H587   0.990       .  S
Zr559       O562   2.437       .  S
Zr559      O2270   2.436       .  S
Zr559      O2275   2.439       .  S
Zr559       O564   2.427       .  S
O560        C565   1.290       .  A
O561        H578   0.990       .  S
O561        H593   0.990       .  S
O562       H2291   0.990       .  S
O563      Zr2271   2.441       .  S
O563        H583   0.990       .  S
O563        H592   0.990       .  S
O564        C565   1.280       .  A
C565       C1650   1.452       .  S
O566        H585   0.990       .  S
O566        H589   0.990       .  S
O567        H581   0.990       .  S
O567        H588   0.990       .  S
O568        C572   1.280       .  A
O569        C572   1.291       .  A
O570        H580   0.990       .  S
O571        H584   0.990       .  S
C572       C1647   1.445       .  S
H579       O2274   0.990       .  S
Zr595       O596   2.422       .  S
Zr595       O597   2.368       .  S
Zr595       O598   2.426       .  S
Zr595       O601   2.446       .  S
Zr595       O603   2.397       .  S
Zr595       O604   2.395       .  S
Zr595       O605   2.436       .  S
Zr595       O606   2.400       .  S
O596        H652   0.990       .  S
O596        H660   0.989       .  S
O597       C2329   1.269       .  A
O598        C619   1.270       .  A
O599       Zr609   2.417       .  S
O599        C618   1.266       .  A
O600       Zr608   2.403       .  S
O600        C619   1.267       .  A
O601        C618   1.277       .  A
O602       Zr610   2.579       .  S
O602        C617   1.312       .  A
O603       Zr608   2.410       .  S
O603      Zr2322   2.317       .  S
O604       Zr609   2.431       .  S
O604      Zr2322   2.346       .  S
O604        H639   0.966       .  S
O605       Zr608   2.433       .  S
O605       Zr625   2.386       .  S
O605        H642   0.965       .  S
O606       Zr609   2.424       .  S
O606       Zr625   2.374       .  S
Zr607      O2344   2.439       .  S
Zr607       O626   2.517       .  S
Zr607       O634   2.428       .  S
Zr607      O2334   2.372       .  S
Zr607       O613   2.429       .  S
Zr607       O615   2.356       .  S
Zr607       O616   2.371       .  S
Zr607      O2326   2.439       .  S
Zr608       O627   2.436       .  S
Zr608      O2332   2.434       .  S
Zr608      O2333   2.483       .  S
Zr608       O615   2.362       .  S
Zr608      O2326   2.389       .  S
Zr609       O611   2.438       .  S
Zr609       O633   2.436       .  S
Zr609       O635   2.470       .  S
Zr609       O613   2.378       .  S
Zr609       O616   2.405       .  S
Zr610       O636   2.436       .  S
Zr610       O637   2.436       .  S
Zr610       O612   2.435       .  S
Zr610       O614   2.455       .  S
Zr610      O2315   2.328   1_554  S
Zr610      O2316   2.348   1_554  S
Zr610      O2325   2.457       .  S
O611        H648   0.990       .  S
O612        H643   0.990       .  S
O612        H657   0.990       .  S
O613      Zr2322   2.458       .  S
O614      Zr2319   2.437   1_554  S
O614      Zr2320   2.388   1_554  S
O614        H640   0.965       .  S
O615       Zr625   2.374       .  S
O616       Zr625   2.380       .  S
O616        H641   0.963       .  S
C617       O2309   1.269   1_554  A
C617       C3345   1.485   1_655  S
C618       C1635   1.418       .  S
C619       C1672   1.411       .  S
O620      Zr2320   2.434       .  S
O620        H656   0.990   1_556  S
O621      Zr2320   2.487       .  S
O621        C623   1.293       .  A
O622      Zr2319   2.368       .  S
O622        C623   1.271       .  A
C623       C1640   1.436       .  S
O624       Zr625   2.438       .  S
O624        H653   0.990       .  S
Zr625       O628   2.439       .  S
Zr625       O629   2.444       .  S
Zr625       O630   2.412       .  S
O626        C631   1.300       .  A
O627        H644   0.989       .  S
O627        H659   0.990       .  S
O628        H645   0.990       .  S
O629        H649   0.990       .  S
O629        H658   0.990       .  S
O630        C631   1.277       .  A
C631       C1638   1.463       .  S
O632      Zr2319   2.440   1_554  S
O632        H651   0.990       .  S
O632        H655   0.991       .  S
O633        H647   0.990       .  S
O633        H654   0.990       .  S
O634        C638   1.283       .  A
O635        C638   1.289       .  A
O636        H646   0.990       .  S
O637        H650   0.990       .  S
C638       C1648   1.445       .  S
Zr661       O662   2.441       .  S
Zr661       O663   2.447       .  S
Zr661       O664   2.376       .  S
Zr661       O667   2.396       .  S
Zr661       O669   2.364       .  S
Zr661       O670   2.380       .  S
Zr661       O671   2.404       .  S
Zr661       O672   2.404       .  S
O662        H718   0.991       .  S
O662        H726   0.990       .  S
O663        C683   1.285       .  A
O664        C685   1.275       .  A
O665       Zr675   2.524       .  S
O665        C684   1.302       .  A
O666       Zr674   2.478       .  S
O666        C685   1.291       .  A
O667        C684   1.276       .  A
O668       Zr676   2.386       .  S
O668        C683   1.273       .  A
O669       Zr674   2.381       .  S
O669       Zr676   2.384       .  S
O670       Zr675   2.387       .  S
O670       Zr676   2.362       .  S
O670        H705   0.965       .  S
O671       Zr674   2.395       .  S
O671       Zr691   2.401       .  S
O671        H708   0.966       .  S
O672       Zr675   2.395       .  S
O672       Zr691   2.423       .  S
Zr673       O698   2.438       .  S
Zr673       O692   2.414       .  S
Zr673       O700   2.408       .  S
Zr673       O688   2.435       .  S
Zr673       O679   2.402       .  S
Zr673       O680   2.393       .  S
Zr673       O681   2.384       .  S
Zr673       O682   2.389       .  S
Zr674       O693   2.436       .  S
Zr674       O686   2.434       .  S
Zr674       O687   2.442       .  S
Zr674       O680   2.414       .  S
Zr674       O681   2.401       .  S
Zr675       O677   2.434       .  S
Zr675       O699   2.434       .  S
Zr675       O701   2.477       .  S
Zr675       O679   2.408       .  S
Zr675       O682   2.411       .  S
Zr676       O702   2.435       .  S
Zr676       O703   2.436       .  S
Zr676       O678   2.438       .  S
Zr676       O679   2.383       .  S
Zr676       O680   2.351       .  S
O677        H714   0.990       .  S
O678        H709   0.990       .  S
O678        H723   0.990       .  S
O680        H706   0.963       .  S
O681       Zr691   2.375       .  S
O682       Zr691   2.355       .  S
O682        H707   0.965       .  S
C683       C1645   1.420       .  S
C684       C1637   1.460       .  S
C685        C751   1.466       .  S
O686        H722   0.990       .  S
O687        C689   1.286       .  A
O688        C689   1.285       .  A
C689       C1664   1.429       .  S
O690       Zr691   2.436       .  S
O690        H719   0.990       .  S
Zr691       O694   2.436       .  S
Zr691       O695   2.439       .  S
Zr691       O696   2.468       .  S
O692        C697   1.277       .  A
O693        H710   0.990       .  S
O693        H725   0.990       .  S
O694        H711   0.990       .  S
O695        H715   0.990       .  S
O695        H724   0.990       .  S
O696        C697   1.290       .  A
C697       C1656   1.448       .  S
O698        H717   0.990       .  S
O698        H721   0.990       .  S
O699        H713   0.990       .  S
O699        H720   0.990       .  S
O700        C704   1.282       .  A
O701        C704   1.293       .  A
O702        H712   0.990       .  S
O703        H716   0.990       .  S
C704        C770   1.471       .  S
Zr727      O2440   2.436       .  S
Zr727       O729   2.470       .  S
Zr727       O733   2.389       .  S
Zr727      O2442   2.405   1_554  S
Zr727       O735   2.362       .  S
Zr727       O736   2.375       .  S
Zr727       O737   2.407       .  S
Zr727       O738   2.414       .  S
O728      Zr2439   2.438       .  S
O728        H784   0.990       .  S
O728        H792   0.990       .  S
O729        C749   1.290       .  A
O730      Zr2439   2.404       .  S
O730        C751   1.280       .  A
O731       Zr741   2.499       .  S
O731        C750   1.296       .  A
O732      Zr2452   2.451       .  S
O732        C751   1.284       .  A
O733        C750   1.275       .  A
O734       Zr742   2.386       .  S
O734        C749   1.272       .  A
O735       Zr740   2.388       .  S
O735       Zr742   2.387       .  S
O736       Zr741   2.385       .  S
O736       Zr742   2.374       .  S
O736        H771   0.966       .  S
O737       Zr740   2.383       .  S
O737       Zr757   2.417       .  S
O737        H774   0.966       .  S
O738       Zr741   2.391       .  S
O738       Zr757   2.428       .  S
Zr739       O764   2.439       .  S
Zr739       O758   2.422       .  S
Zr739       O766   2.433       .  S
Zr739       O754   2.441       .  S
Zr739       O745   2.402       .  S
Zr739       O746   2.400       .  S
Zr739       O747   2.382       .  S
Zr739       O748   2.386       .  S
Zr740       O759   2.435       .  S
Zr740       O752   2.433       .  S
Zr740       O753   2.403       .  S
Zr740      O2444   2.465   1_554  S
Zr740       O746   2.418       .  S
Zr740       O747   2.400       .  S
Zr741       O743   2.434       .  S
Zr741       O765   2.437       .  S
Zr741       O767   2.453       .  S
Zr741       O745   2.413       .  S
Zr741       O748   2.412       .  S
Zr742       O768   2.435       .  S
Zr742       O769   2.435       .  S
Zr742       O744   2.437       .  S
Zr742       O745   2.390       .  S
Zr742       O746   2.364       .  S
O743        H780   0.990       .  S
O744        H775   0.990       .  S
O744        H789   0.990       .  S
O746        H772   0.965       .  S
O747       Zr757   2.363       .  S
O748       Zr757   2.359       .  S
O748        H773   0.965       .  S
C749       C1639   1.436       .  S
C750       C1649   1.450       .  S
O752        H788   0.990       .  S
O753        C755   1.278       .  A
O754        C755   1.287       .  A
C755       C1658   1.418       .  S
O756       Zr757   2.439       .  S
O756        H785   0.990       .  S
Zr757       O760   2.437       .  S
Zr757       O761   2.441       .  S
Zr757       O762   2.491       .  S
O758        C763   1.280       .  A
O759        H776   0.990       .  S
O759        H791   0.990       .  S
O760        H777   0.990       .  S
O761        H781   0.990       .  S
O761        H790   0.990       .  S
O762        C763   1.294       .  A
C763       C1668   1.464       .  S
O764        H783   0.990       .  S
O764        H787   0.990       .  S
O765        H779   0.990       .  S
O765        H786   0.990       .  S
O766        C770   1.288       .  A
O767        C770   1.287       .  A
O768        H778   0.990       .  S
O769        H782   0.989       .  S
Zr793       O794   2.442       .  S
Zr793       O795   2.508       .  S
Zr793       O796   2.425       .  S
Zr793       O799   2.387       .  S
Zr793       O801   2.378       .  S
Zr793       O802   2.397       .  S
Zr793       O803   2.437       .  S
Zr793       O804   2.437       .  S
O794        H850   0.990       .  S
O794        H858   0.990       .  S
O795        C815   1.292       .  A
O796        C817   1.278       .  A
O797       Zr807   2.420       .  S
O797        C816   1.274       .  A
O798       Zr806   2.487       .  S
O798        C817   1.291       .  A
O799        C816   1.264       .  A
O800       Zr808   2.386       .  S
O800        C815   1.266       .  A
O801       Zr806   2.393       .  S
O801       Zr808   2.379       .  S
O802       Zr807   2.403       .  S
O802       Zr808   2.388       .  S
O802        H837   0.967       .  S
O803       Zr806   2.393       .  S
O803       Zr823   2.471       .  S
O803        H840   0.965       .  S
O804       Zr807   2.385       .  S
O804       Zr823   2.422       .  S
Zr805       O830   2.429       .  S
Zr805       O824   2.460       .  S
Zr805       O832   2.437       .  S
Zr805       O820   2.430       .  S
Zr805       O812   2.431       .  S
Zr805       O813   2.390       .  S
Zr805       O814   2.385       .  S
Zr805       O811   2.271       .  S
Zr806       O825   2.435       .  S
Zr806       O818   2.436       .  S
Zr806       O819   2.417       .  S
Zr806       O812   2.451       .  S
Zr806       O813   2.438       .  S
Zr807       O809   2.441       .  S
Zr807       O831   2.442       .  S
Zr807       O833   2.419       .  S
Zr807       O814   2.382       .  S
Zr807       O811   2.266       .  S
Zr808       O834   2.435       .  S
Zr808       O835   2.435       .  S
Zr808       O810   2.445   1_554  S
Zr808       O812   2.357       .  S
Zr808       O811   2.285       .  S
O809        H846   0.991       .  S
O810        H855   0.990       .  S
O810       H2553   0.990       .  S
O812        H838   0.963       .  S
O813       Zr823   2.374       .  S
O814       Zr823   2.389       .  S
O814        H839   0.963       .  S
C815       C1631   1.452       .  S
C816       C1627   1.406       .  S
C817       C1629   1.463       .  S
O818        H854   0.991       .  S
O819        C821   1.270       .  A
O820        C821   1.271       .  A
C821       C1625   1.426   1_554  S
O822       Zr823   2.435       .  S
O822        H851   0.990       .  S
Zr823       O826   2.437       .  S
Zr823       O827   2.437       .  S
Zr823       O828   2.524       .  S
O824        C829   1.287       .  A
O825        H842   0.990       .  S
O825        H857   0.990       .  S
O826        H843   0.990       .  S
O827        H847   0.990       .  S
O827        H856   0.990       .  S
O828        C829   1.299       .  A
C829       C1702   1.485       .  S
O830        H849   0.989       .  S
O830        H853   0.988       .  S
O831        H845   0.990       .  S
O831        H852   0.990       .  S
O832        C836   1.286       .  A
O833        C836   1.280       .  A
O834        H844   0.990       .  S
O835       H2560   0.990       .  S
C836       C1644   1.415       .  S
H841       O2522   0.990       .  S
H848       O2547   0.990       .  S
Zr859      O2572   2.440   1_554  S
Zr859       O861   2.492       .  S
Zr859       O862   2.446       .  S
Zr859       O865   2.400   1_554  S
Zr859       O867   2.370       .  S
Zr859       O868   2.389       .  S
Zr859       O869   2.419       .  S
Zr859       O870   2.431       .  S
O860      Zr2571   2.442       .  S
O860        H916   0.990       .  S
O860        H924   0.990       .  S
O861        C881   1.293       .  A
O862        C883   1.284       .  A
O863       Zr873   2.417   1_556  S
O863        C882   1.274       .  A
O864       Zr872   2.471       .  S
O864        C883   1.290       .  A
O865        C882   1.269       .  A
O866       Zr874   2.366       .  S
O866        C881   1.268       .  A
O867       Zr872   2.392       .  S
O867       Zr874   2.378       .  S
O868       Zr873   2.426       .  S
O868       Zr874   2.383       .  S
O868        H903   0.966       .  S
O869       Zr872   2.384       .  S
O869       Zr889   2.432       .  S
O869        H906   0.967       .  S
O870       Zr873   2.401       .  S
O870       Zr889   2.422       .  S
Zr871       O896   2.436   1_545  S
Zr871       O890   2.424       .  S
Zr871       O898   2.448       .  S
Zr871       O886   2.403       .  S
Zr871       O877   2.370       .  S
Zr871       O878   2.427       .  S
Zr871       O879   2.387       .  S
Zr871       O880   2.379       .  S
Zr872       O891   2.436       .  S
Zr872       O884   2.433       .  S
Zr872       O885   2.422       .  S
Zr872       O878   2.410       .  S
Zr872       O879   2.412       .  S
Zr873       O897   2.440   1_554  S
Zr873      O2587   2.437   1_554  S
Zr873       O899   2.448       .  S
Zr873       O877   2.372       .  S
Zr873       O880   2.413       .  S
Zr874       O900   2.436       .  S
Zr874       O901   2.439       .  S
Zr874       O876   2.438       .  S
Zr874       O877   2.342       .  S
Zr874       O878   2.361       .  S
O875      Zr2585   2.437       .  S
O875       H2624   0.990       .  S
O876        H907   0.990       .  S
O876        H921   0.990       .  S
O878        H904   0.963       .  S
O879       Zr889   2.374       .  S
O880       Zr889   2.383       .  S
O880        H905   0.965       .  S
C881       C1621   1.439       .  S
C882       C3335   1.412       .  S
C883       C1630   1.463       .  S
O884        H920   0.990       .  S
O885        C887   1.283       .  A
O886        C887   1.276       .  A
C887       C1619   1.401       .  S
O888      Zr2601   2.436       .  S
O888        H917   0.990       .  S
Zr889      O2600   2.436   1_554  S
Zr889      O2604   2.435       .  S
Zr889      O2605   2.439   1_554  S
Zr889       O894   2.485       .  S
O890        C895   1.278       .  A
O891        H908   0.990       .  S
O891        H923   0.990       .  S
O892      Zr2601   2.436       .  S
O892        H909   0.990       .  S
O893      Zr2601   2.438       .  S
O893        H913   0.991       .  S
O893        H922   0.990       .  S
O894        C895   1.291       .  A
C895       C1696   1.464   1_545  S
O896        H915   0.986   1_565  S
O896        H919   0.990       .  S
O897        H911   0.990       .  S
O897        H918   0.990   1_556  S
O898        C902   1.275       .  A
O899        C902   1.280       .  A
O900        H910   0.990       .  S
O901        H914   0.990       .  S
C902       C1662   1.429       .  S
H912       O2587   0.990       .  S
Zr925       O926   2.439       .  S
Zr925       O927   2.453       .  S
Zr925       O928   2.376       .  S
Zr925       O931   2.395       .  S
Zr925       O933   2.364       .  S
Zr925       O934   2.371       .  S
Zr925       O935   2.407       .  S
Zr925       O936   2.406       .  S
O926        H982   0.990       .  S
O926        H990   0.991       .  S
O927        C947   1.287       .  A
O928        C949   1.272       .  A
O929       Zr939   2.467       .  S
O929        C948   1.290       .  A
O930       Zr938   2.467       .  S
O930        C949   1.288       .  A
O931        C948   1.275       .  A
O932       Zr940   2.388       .  S
O932        C947   1.274       .  A
O933       Zr938   2.368       .  S
O933       Zr940   2.385       .  S
O934       Zr939   2.371       .  S
O934       Zr940   2.364       .  S
O934        H969   0.965       .  S
O935       Zr938   2.378       .  S
O935       Zr955   2.425       .  S
O935        H972   0.965       .  S
O936       Zr939   2.389       .  S
O936       Zr955   2.445       .  S
Zr937       O962   2.433       .  S
Zr937       O956   2.419       .  S
Zr937       O964   2.428       .  S
Zr937       O952   2.472       .  S
Zr937       O943   2.418       .  S
Zr937       O944   2.407       .  S
Zr937       O945   2.384       .  S
Zr937       O946   2.397       .  S
Zr938       O957   2.435   1_655  S
Zr938       O950   2.434       .  S
Zr938       O951   2.385       .  S
Zr938       O944   2.417       .  S
Zr938       O945   2.412       .  S
Zr939       O941   2.434       .  S
Zr939       O963   2.438       .  S
Zr939       O965   2.394       .  S
Zr939       O943   2.431       .  S
Zr939       O946   2.441       .  S
Zr940       O966   2.437       .  S
Zr940       O967   2.436       .  S
Zr940       O942   2.437       .  S
Zr940       O943   2.381       .  S
Zr940       O944   2.363       .  S
O941        H978   0.990       .  S
O942        H973   0.990       .  S
O942        H987   0.990       .  S
O944        H970   0.964       .  S
O945       Zr955   2.370       .  S
O946       Zr955   2.327       .  S
O946        H971   0.963       .  S
C947       C1617   1.425       .  S
C948       C1614   1.433       .  S
C949       C1615   1.432       .  S
O950        H986   0.990       .  S
O951        C953   1.275       .  A
O952        C953   1.290       .  A
C953       C1612   1.422       .  S
O954       Zr955   2.437       .  S
O954        H983   0.990       .  S
Zr955       O958   2.435       .  S
Zr955       O959   2.436       .  S
Zr955       O960   2.529       .  S
O956        C961   1.277       .  A
O957        H974   0.990       .  S
O957        H989   0.990       .  S
O958        H975   0.990   1_655  S
O959        H979   0.990       .  S
O959        H988   0.990       .  S
O960        C961   1.301       .  A
C961       C1680   1.479       .  S
O962        H981   0.989       .  S
O962        H985   0.990       .  S
O963        H977   0.990       .  S
O963        H984   0.990       .  S
O964        C968   1.278       .  A
O965        C968   1.268       .  A
O966        H976   0.990       .  S
O967        H980   0.990       .  S
C968       C1654   1.422       .  S
Zr991       O992   2.441       .  S
Zr991       O993   2.500       .  S
Zr991       O994   2.444       .  S
Zr991       O997   2.387       .  S
Zr991       O999   2.369       .  S
Zr991      O1000   2.379       .  S
Zr991      O1001   2.421       .  S
Zr991      O1002   2.424       .  S
O992       H1048   0.990       .  S
O992       H1056   0.990       .  S
O993       C1013   1.296       .  A
O994       C1015   1.285       .  A
O995      Zr1005   2.456       .  S
O995       C1014   1.286       .  A
O996      Zr1004   2.424       .  S
O996       C1015   1.280       .  A
O997       C1014   1.275       .  A
O998      Zr1006   2.393       .  S
O998       C1013   1.273       .  A
O999      Zr1004   2.407       .  S
O999      Zr1006   2.379       .  S
O1000     Zr1005   2.388       .  S
O1000     Zr1006   2.385       .  S
O1000      H1035   0.965       .  S
O1001     Zr1004   2.399       .  S
O1001     Zr1021   2.421       .  S
O1001      H1038   0.966       .  S
O1002     Zr1005   2.393       .  S
O1002     Zr1021   2.427       .  S
Zr1003     O1028   2.428       .  S
Zr1003     O1022   2.420       .  S
Zr1003     O1030   2.423       .  S
Zr1003     O1018   2.448       .  S
Zr1003     O1009   2.405       .  S
Zr1003     O1010   2.416       .  S
Zr1003     O1011   2.371       .  S
Zr1003     O1012   2.402       .  S
Zr1004     O1023   2.437       .  S
Zr1004     O1016   2.436       .  S
Zr1004     O1017   2.422       .  S
Zr1004     O1010   2.398       .  S
Zr1004     O1011   2.408       .  S
Zr1005     O1007   2.434       .  S
Zr1005     O1029   2.438       .  S
Zr1005     O1031   2.430       .  S
Zr1005     O1009   2.407       .  S
Zr1005     O1012   2.415       .  S
Zr1006     O1032   2.434       .  S
Zr1006     O1033   2.440       .  S
Zr1006     O1008   2.440       .  S
Zr1006     O1009   2.361       .  S
Zr1006     O1010   2.373       .  S
O1007      H1044   0.990       .  S
O1008      H1039   0.990       .  S
O1008      H1053   0.990       .  S
O1010      H1036   0.962       .  S
O1011     Zr1021   2.385       .  S
O1012     Zr1021   2.359       .  S
O1012      H1037   0.966       .  S
C1013      C1608   1.450       .  S
C1014      C1609   1.428       .  S
C1015      C1616   1.437       .  S
O1016      H1052   0.990   1_655  S
O1017      C1019   1.280       .  A
O1018      C1019   1.285       .  A
C1019      C1605   1.423   1_655  S
O1020     Zr1021   2.439       .  S
O1020      H1049   0.991       .  S
Zr1021     O1024   2.436       .  S
Zr1021     O1025   2.439       .  S
Zr1021     O1026   2.485       .  S
O1022      C1027   1.279       .  A
O1023      H1040   0.990   1_655  S
O1023      H1055   0.990   1_655  S
O1024      H1041   0.990       .  S
O1025      H1045   0.990       .  S
O1025      H1054   0.990       .  S
O1026      C1027   1.291       .  A
C1027      C1670   1.460       .  S
O1028      H1047   0.989       .  S
O1028      H1051   0.991       .  S
O1029      H1043   0.990       .  S
O1029      H1050   0.990       .  S
O1030      C1034   1.264       .  A
O1031      C1034   1.271       .  A
O1032      H1042   0.990       .  S
O1033      H1046   0.990       .  S
C1034      C1636   1.415       .  S
Zr1057     O1058   2.438   1_556  S
Zr1057     O1059   2.404   1_556  S
Zr1057     O1060   2.417   1_556  S
Zr1057     O2775   2.431       .  S
Zr1057     O2777   2.375       .  S
Zr1057     O2778   2.385       .  S
Zr1057     O2779   2.401       .  S
Zr1057     O2780   2.382       .  S
O1058      H1114   0.990       .  S
O1058      H1122   0.990       .  S
O1059      C1079   1.277       .  A
O1060      C1081   1.283       .  A
O1061     Zr1071   2.385       .  S
O1061      C1080   1.274       .  A
O1062     Zr2782   2.455   1_554  S
O1062      C1081   1.289       .  A
O1063     Zr2769   2.439       .  S
O1063      C1080   1.286       .  A
O1064     Zr1072   2.512       .  S
O1064      C2791   1.298       .  A
O1065     Zr1070   2.403       .  S
O1065     Zr1072   2.351       .  S
O1065     Zr2769   2.375       .  S
O1066     Zr1071   2.403       .  S
O1066     Zr1072   2.367       .  S
O1066     Zr2769   2.386       .  S
O1066      H1101   0.966       .  S
O1067     Zr1070   2.418       .  S
O1067     Zr1087   2.389       .  S
O1067     Zr2769   2.401       .  S
O1067      H2816   0.966       .  S
O1068     Zr1071   2.409       .  S
O1068     Zr1087   2.372       .  S
O1068     Zr2769   2.382       .  S
Zr1069     O1094   2.439       .  S
Zr1069     O1088   2.461       .  S
Zr1069     O1096   2.388       .  S
Zr1069     O1084   2.378       .  S
Zr1069     O1075   2.406       .  S
Zr1069     O1076   2.416       .  S
Zr1069     O1077   2.370       .  S
Zr1069     O1078   2.362       .  S
Zr1070     O1082   2.435       .  S
Zr1070     O2801   2.437       .  S
Zr1070     O1083   2.505       .  S
Zr1070     O2774   2.454       .  S
Zr1070     O1076   2.396       .  S
Zr1070     O1077   2.374       .  S
Zr1071     O1073   2.436       .  S
Zr1071     O1095   2.436       .  S
Zr1071     O1097   2.456       .  S
Zr1071     O1075   2.379       .  S
Zr1071     O1078   2.374       .  S
Zr1072     O1098   2.436       .  S
Zr1072     O1099   2.436       .  S
Zr1072     O1074   2.436       .  S
Zr1072     O1075   2.427       .  S
Zr1072     O1076   2.438       .  S
O1073      H1110   0.990       .  S
O1074      H1105   0.990       .  S
O1074      H1119   0.990       .  S
O1076      H1102   0.966       .  S
O1077     Zr1087   2.371       .  S
O1078     Zr1087   2.389       .  S
O1078      H1103   0.965       .  S
C1079      O2776   1.296       .  A
C1079      C1632   1.457       .  S
C1080      C1624   1.414       .  S
C1081      C1147   1.466       .  S
O1082      H2830   0.990       .  S
O1083      C1085   1.298       .  A
O1084      C1085   1.272       .  A
C1085      C1607   1.449       .  S
O1086     Zr1087   2.435       .  S
O1086      H1115   0.990       .  S
Zr1087     O1090   2.436       .  S
Zr1087     O1091   2.437       .  S
Zr1087     O1092   2.389       .  S
O1088      C1093   1.288       .  A
O1089     Zr2782   2.436   1_554  S
O1089      H1106   0.990       .  S
O1089      H1121   0.990       .  S
O1090      H1107   0.990       .  S
O1091      H1111   0.990       .  S
O1091      H1120   0.990       .  S
O1092      C1093   1.274       .  A
C1093      C1613   1.431       .  S
O1094      H1113   0.990       .  S
O1094      H1117   0.990       .  S
O1095      H1109   0.990       .  S
O1095      H1116   0.990       .  S
O1096      C1100   1.277       .  A
O1097      C1100   1.285       .  A
O1098      H1108   0.990       .  S
O1099      H1112   0.990       .  S
C1100      C1166   1.467       .  S
H1104      O2779   0.966   1_554  S
H1118      O2794   0.990       .  S
Zr1123     O1124   2.437       .  S
Zr1123     O1125   2.397       .  S
Zr1123     O1126   2.434       .  S
Zr1123     O1129   2.428       .  S
Zr1123     O1131   2.372       .  S
Zr1123     O1132   2.390       .  S
Zr1123     O1133   2.397       .  S
Zr1123     O1134   2.384       .  S
O1124      H1180   0.990       .  S
O1124      H1188   0.990       .  S
O1125      C1145   1.275       .  A
O1126      C1147   1.287       .  A
O1127     Zr1137   2.383       .  S
O1127      C1146   1.273       .  A
O1128     Zr1136   2.433       .  S
O1128      C1147   1.283       .  A
O1129      C1146   1.285       .  A
O1130     Zr1138   2.485       .  S
O1130      C1145   1.294       .  A
O1131     Zr1136   2.394       .  S
O1131     Zr1138   2.358       .  S
O1132     Zr1137   2.396       .  S
O1132     Zr1138   2.368       .  S
O1132      H1167   0.966       .  S
O1133     Zr1136   2.408       .  S
O1133     Zr1153   2.397       .  S
O1133      H1170   0.966       .  S
O1134     Zr1137   2.402       .  S
O1134     Zr1153   2.370       .  S
Zr1135     O1160   2.442       .  S
Zr1135     O1154   2.444       .  S
Zr1135     O1162   2.402       .  S
Zr1135     O1150   2.382       .  S
Zr1135     O1141   2.402       .  S
Zr1135     O1142   2.407       .  S
Zr1135     O1143   2.373       .  S
Zr1135     O1144   2.359       .  S
Zr1136     O1155   2.438       .  S
Zr1136     O1148   2.437       .  S
Zr1136     O1149   2.453       .  S
Zr1136     O1142   2.397       .  S
Zr1136     O1143   2.378       .  S
Zr1137     O1139   2.435       .  S
Zr1137     O1161   2.437       .  S
Zr1137     O1163   2.445       .  S
Zr1137     O1141   2.380       .  S
Zr1137     O1144   2.377       .  S
Zr1138     O1164   2.437       .  S
Zr1138     O1165   2.435       .  S
Zr1138     O1140   2.437       .  S
Zr1138     O1141   2.419       .  S
Zr1138     O1142   2.422       .  S
O1139      H1176   0.990       .  S
O1140      H1171   0.990       .  S
O1140      H1185   0.990       .  S
O1142      H1168   0.966       .  S
O1143     Zr1153   2.375       .  S
O1144     Zr1153   2.381       .  S
O1144      H1169   0.965       .  S
C1145      C1622   1.445       .  S
C1146      C1628   1.407       .  S
O1148      H1184   0.990       .  S
O1149      C1151   1.287       .  A
O1150      C1151   1.274       .  A
C1151      C1618   1.425       .  S
O1152     Zr1153   2.435       .  S
O1152      H1181   0.990       .  S
Zr1153     O1156   2.435       .  S
Zr1153     O1157   2.438       .  S
Zr1153     O1158   2.402       .  S
O1154      C1159   1.285       .  A
O1155      H1172   0.990       .  S
O1155      H1187   0.989       .  S
O1156      H1173   0.990       .  S
O1157      H1177   0.990       .  S
O1157      H1186   0.990       .  S
O1158      C1159   1.276       .  A
C1159      C1610   1.430       .  S
O1160      H1179   0.990       .  S
O1160      H1183   0.990       .  S
O1161      H1175   0.990       .  S
O1161      H1182   0.990       .  S
O1162      C1166   1.280       .  A
O1163      C1166   1.283       .  A
O1164      H1174   0.990       .  S
O1165      H1178   0.990       .  S
Zr1189     O1190   2.435   1_545  S
Zr1189     O1191   2.452   1_545  S
Zr1189     O1192   2.384       .  S
Zr1189     O1195   2.435   1_545  S
Zr1189     O1197   2.366       .  S
Zr1189     O1198   2.378       .  S
Zr1189     O1199   2.412       .  S
Zr1189     O1200   2.386       .  S
O1190      H1246   0.990       .  S
O1190      H1254   0.990       .  S
O1191      C1211   1.287   1_565  A
O1192      C1213   1.274       .  A
O1193     Zr1203   2.401   1_565  S
O1193      C1212   1.275       .  A
O1194     Zr1202   2.412       .  S
O1194      C1213   1.280       .  A
O1195      C1212   1.284       .  A
O1196     Zr1204   2.542       .  S
O1196      C1211   1.304       .  A
O1197     Zr1202   2.372       .  S
O1197     Zr1204   2.326       .  S
O1198     Zr1203   2.416       .  S
O1198     Zr1204   2.383       .  S
O1198      H1233   0.966   1_545  S
O1199     Zr1202   2.404       .  S
O1199     Zr1219   2.397       .  S
O1199      H1236   0.966       .  S
O1200     Zr1203   2.396       .  S
O1200     Zr1219   2.380       .  S
Zr1201     O1226   2.436       .  S
Zr1201     O1220   2.486       .  S
Zr1201     O1228   2.477       .  S
Zr1201     O1216   2.399       .  S
Zr1201     O1207   2.418       .  S
Zr1201     O1208   2.443       .  S
Zr1201     O1209   2.366       .  S
Zr1201     O1210   2.369       .  S
Zr1202     O1221   2.437       .  S
Zr1202     O1214   2.436       .  S
Zr1202     O1215   2.437       .  S
Zr1202     O1208   2.401       .  S
Zr1202     O1209   2.363       .  S
Zr1203     O1205   2.440   1_545  S
Zr1203     O1227   2.438   1_545  S
Zr1203     O1229   2.455       .  S
Zr1203     O1207   2.381       .  S
Zr1203     O1210   2.401       .  S
Zr1204     O1230   2.436       .  S
Zr1204     O1231   2.436       .  S
Zr1204     O1206   2.437       .  S
Zr1204     O1207   2.455       .  S
Zr1204     O1208   2.427       .  S
O1205      H1242   0.989       .  S
O1206      H1237   0.990       .  S
O1206      H1251   0.990       .  S
O1208      H1234   0.966       .  S
O1209     Zr1219   2.344       .  S
O1210     Zr1219   2.384       .  S
O1210      H1235   0.963       .  S
C1211      C1660   1.501   1_545  S
C1212      C1694   1.415       .  S
C1213      C1620   1.396       .  S
O1214      H1250   0.990       .  S
O1215      C1217   1.281       .  A
O1216      C1217   1.277       .  A
C1217      C1600   1.421       .  S
O1218     Zr1219   2.437       .  S
O1218      H1247   0.990       .  S
Zr1219     O1222   2.436       .  S
Zr1219     O1223   2.441       .  S
Zr1219     O1224   2.437       .  S
O1220      C1225   1.293       .  A
O1221      H1238   0.990       .  S
O1221      H1253   0.990       .  S
O1222      H1239   0.990       .  S
O1223      H1243   0.990       .  S
O1223      H1252   0.990       .  S
O1224      C1225   1.283       .  A
C1225      C1603   1.458       .  S
O1226      H1245   0.990       .  S
O1226      H1249   0.990       .  S
O1227      H1241   0.990       .  S
O1227      H1248   0.990       .  S
O1228      C1232   1.292       .  A
O1229      C1232   1.285       .  A
O1230      H1240   0.990       .  S
O1231      H1244   0.990       .  S
C1232      C1601   1.463       .  S
Zr1255     O1256   2.431       .  S
Zr1255     O1257   2.399       .  S
Zr1255     O1258   2.423       .  S
Zr1255     O1261   2.437       .  S
Zr1255     O1263   2.370       .  S
Zr1255     O1264   2.397       .  S
Zr1255     O1265   2.419       .  S
Zr1255     O1266   2.389       .  S
O1256      H1312   0.989       .  S
O1256      H1320   0.989       .  S
O1257      C1277   1.281       .  A
O1258      C1279   1.265       .  A
O1259     Zr1269   2.409       .  S
O1259      C1278   1.269       .  A
O1260     Zr1268   2.447       .  S
O1260      C1279   1.272       .  A
O1261      C1278   1.282       .  A
O1262     Zr1270   2.578       .  S
O1262      C1277   1.314       .  A
O1263     Zr1268   2.401       .  S
O1263     Zr1270   2.310       .  S
O1264     Zr1269   2.408       .  S
O1264     Zr1270   2.373       .  S
O1264      H1299   0.966       .  S
O1265     Zr1268   2.435       .  S
O1265     Zr1285   2.382       .  S
O1265      H1302   0.966       .  S
O1266     Zr1269   2.414       .  S
O1266     Zr1285   2.383       .  S
Zr1267     O1292   2.437       .  S
Zr1267     O1286   2.477       .  S
Zr1267     O1294   2.408       .  S
Zr1267     O1282   2.415       .  S
Zr1267     O1273   2.421       .  S
Zr1267     O1274   2.432       .  S
Zr1267     O1275   2.377       .  S
Zr1267     O1276   2.367       .  S
Zr1268     O1287   2.437       .  S
Zr1268     O1280   2.435       .  S
Zr1268     O1281   2.461       .  S
Zr1268     O1274   2.408       .  S
Zr1268     O1275   2.383       .  S
Zr1269     O1271   2.439       .  S
Zr1269     O1293   2.439   1_545  S
Zr1269     O1295   2.509       .  S
Zr1269     O1273   2.384       .  S
Zr1269     O1276   2.340       .  S
Zr1270     O1296   2.432   1_545  S
Zr1270     O1297   2.437   1_545  S
Zr1270     O1272   2.437       .  S
Zr1270     O1273   2.449       .  S
Zr1270     O1274   2.454       .  S
O1271      H1308   0.990       .  S
O1272      H1303   0.990       .  S
O1272      H1317   0.990       .  S
O1274      H1300   0.967       .  S
O1275     Zr1285   2.369       .  S
O1276     Zr1285   2.389       .  S
O1276      H1301   0.961       .  S
C1277      C1652   1.487       .  S
C1278      C1681   1.419       .  S
C1279      C1611   1.420       .  S
O1280      H1316   0.990       .  S
O1281      C1283   1.289       .  A
O1282      C1283   1.280       .  A
C1283      C1597   1.442       .  S
O1284     Zr1285   2.437       .  S
O1284      H1313   0.990       .  S
Zr1285     O1288   2.436       .  S
Zr1285     O1289   2.435       .  S
Zr1285     O1290   2.397       .  S
O1286      C1291   1.292       .  A
O1287      H1304   0.990       .  S
O1287      H1319   0.990       .  S
O1288      H1305   0.990       .  S
O1289      H1309   0.990       .  S
O1289      H1318   0.990       .  S
O1290      C1291   1.276       .  A
C1291      C1596   1.429       .  S
O1292      H1311   0.990       .  S
O1292      H1315   0.990       .  S
O1293      H1307   0.990       .  S
O1293      H1314   0.990       .  S
O1294      C1298   1.278       .  A
O1295      C1298   1.296       .  A
O1296      H1306   0.990       .  S
O1297      H1310   0.990   1_565  S
C1298      C1602   1.461       .  S
Zr1321     O3034   2.422       .  S
Zr1321     O1323   2.354       .  S
Zr1321     O1324   2.437       .  S
Zr1321     O1327   2.455       .  S
Zr1321     O1329   2.406       .  S
Zr1321     O1330   2.396       .  S
Zr1321     O1331   2.426       .  S
Zr1321     O1332   2.392       .  S
O1322     Zr3033   2.422   1_554  S
O1322      H1378   0.989       .  S
O1322      H1386   0.987       .  S
O1323      C1343   1.267       .  A
O1324      C1345   1.272       .  A
O1325     Zr1335   2.429       .  S
O1325      C1344   1.267       .  A
O1326     Zr1334   2.416       .  S
O1326      C1345   1.268       .  A
O1327      C1344   1.278       .  A
O1328     Zr1336   2.594       .  S
O1328      C1343   1.315       .  A
O1329     Zr1334   2.409       .  S
O1329     Zr1336   2.315       .  S
O1330     Zr1335   2.427       .  S
O1330     Zr1336   2.326       .  S
O1330      H1365   0.966       .  S
O1331     Zr1334   2.438       .  S
O1331     Zr1351   2.362       .  S
O1331      H1368   0.961       .  S
O1332     Zr1335   2.428       .  S
O1332     Zr1351   2.377       .  S
Zr1333     O1358   2.441       .  S
Zr1333     O1352   2.537       .  S
Zr1333     O1360   2.443       .  S
Zr1333     O1348   2.391       .  S
Zr1333     O1340   2.442       .  S
Zr1333     O1341   2.356       .  S
Zr1333     O1342   2.359       .  S
Zr1333     O1339   2.350       .  S
Zr1334     O1353   2.440       .  S
Zr1334     O1346   2.437       .  S
Zr1334     O1347   2.466       .  S
Zr1334     O1340   2.399       .  S
Zr1334     O1341   2.390       .  S
Zr1335     O1337   2.433       .  S
Zr1335     O1359   2.437       .  S
Zr1335     O1361   2.475       .  S
Zr1335     O1342   2.406       .  S
Zr1335     O1339   2.276       .  S
Zr1336     O1362   2.438       .  S
Zr1336     O1363   2.436       .  S
Zr1336     O1338   2.438       .  S
Zr1336     O1340   2.416       .  S
Zr1336     O1339   2.379       .  S
O1337      H1374   0.990       .  S
O1338      H1369   0.990       .  S
O1338      H1383   0.990       .  S
O1340      H1366   0.964       .  S
O1341     Zr1351   2.386       .  S
O1342     Zr1351   2.375       .  S
O1342      H1367   0.963       .  S
C1343      C1641   1.482       .  S
C1344      C3417   1.407       .  S
C1345      C1626   1.420       .  S
O1346      H1382   0.990       .  S
O1347      C1349   1.289       .  A
O1348      C1349   1.275       .  A
C1349      C1589   1.423       .  S
O1350     Zr3063   2.435   1_554  S
O1350      H1379   0.990       .  S
Zr1351     O1354   2.441       .  S
Zr1351     O3062   2.437       .  S
Zr1351     O3067   2.442       .  S
Zr1351     O1356   2.383       .  S
O1352      C1357   1.303       .  A
O1353      H1370   0.990       .  S
O1353      H1385   0.989       .  S
O1354      H3083   0.990       .  S
O1355     Zr3063   2.443   1_554  S
O1355      H1375   0.989       .  S
O1355      H1384   0.990       .  S
O1356      C1357   1.270       .  A
C1357      C1593   1.463       .  S
O1358      H1377   0.990       .  S
O1358      H1381   0.991       .  S
O1359      H1373   0.990       .  S
O1359      H1380   0.990       .  S
O1360      C1364   1.284       .  A
O1361      C1364   1.290       .  A
O1362      H1372   0.991       .  S
O1363      H1376   0.990       .  S
C1364      C1591   1.456       .  S
H1371      O3066   0.990       .  S
Zr1387     O1388   2.443       .  S
Zr1387     O1389   2.459       .  S
Zr1387     O1390   2.398       .  S
Zr1387     O1393   2.418       .  S
Zr1387     O1395   2.372       .  S
Zr1387     O1396   2.386       .  S
Zr1387     O1397   2.430       .  S
Zr1387     O1398   2.401       .  S
O1388      H1444   0.991       .  S
O1388      H1452   0.990       .  S
O1389      C1409   1.286       .  A
O1390      C1411   1.275       .  A
O1391     Zr1401   2.439       .  S
O1391      C1410   1.279       .  A
O1392     Zr1400   2.457       .  S
O1392      C1411   1.286       .  A
O1393      C1410   1.271       .  A
O1394     Zr1402   2.514       .  S
O1394      C3121   1.297       .  A
O1395     Zr1400   2.404       .  S
O1395     Zr3114   2.375       .  S
O1396     Zr1401   2.432       .  S
O1396     Zr3114   2.377       .  S
O1396      H1431   0.966       .  S
O1397     Zr1400   2.413       .  S
O1397     Zr1417   2.389       .  S
O1397      H1434   0.963       .  S
O1398     Zr1401   2.389       .  S
O1398     Zr1417   2.366       .  S
Zr1399     O3136   2.438       .  S
Zr1399     O1418   2.467       .  S
Zr1399     O1426   2.442       .  S
Zr1399     O3126   2.392       .  S
Zr1399     O1405   2.414       .  S
Zr1399     O1407   2.374       .  S
Zr1399     O1408   2.373       .  S
Zr1399     O3118   2.432       .  S
Zr1400     O1419   2.443       .  S
Zr1400     O3124   2.436       .  S
Zr1400     O3125   2.464       .  S
Zr1400     O1407   2.379       .  S
Zr1400     O3118   2.405       .  S
Zr1401     O1403   2.441       .  S
Zr1401     O1425   2.440       .  S
Zr1401     O1427   2.478       .  S
Zr1401     O1405   2.391       .  S
Zr1401     O1408   2.401       .  S
Zr1402     O1428   2.435       .  S
Zr1402     O1429   2.435       .  S
Zr1402     O1404   2.438       .  S
Zr1402     O1406   2.430       .  S
Zr1402     O3107   2.373   1_554  S
Zr1402     O3108   2.377   1_554  S
Zr1402     O3117   2.445   1_554  S
O1403      H1440   0.990       .  S
O1404      H1435   0.990       .  S
O1404      H1449   0.990       .  S
O1405     Zr3114   2.445       .  S
O1406     Zr3111   2.434   1_554  S
O1406     Zr3112   2.404   1_554  S
O1406      H1432   0.967       .  S
O1407     Zr1417   2.348       .  S
O1408     Zr1417   2.373       .  S
O1408      H1433   0.963       .  S
C1409      O3106   1.297       .  A
C1409      C1634   1.495       .  S
C1410      C1673   1.417       .  S
C1411      C1606   1.420       .  S
O1412     Zr3112   2.433   1_554  S
O1412      H1448   0.990       .  S
O1413     Zr3112   2.456       .  S
O1413      C1415   1.285       .  A
O1414     Zr3111   2.392       .  S
O1414      C1415   1.275       .  A
C1415      C1587   1.424       .  S
O1416     Zr1417   2.437       .  S
O1416      H1445   0.990       .  S
Zr1417     O1420   2.436       .  S
Zr1417     O1421   2.443       .  S
Zr1417     O1422   2.430       .  S
O1418      C1423   1.289       .  A
O1419      H1436   0.990       .  S
O1419      H1451   0.990       .  S
O1420      H1437   0.990       .  S
O1421      H1441   0.990       .  S
O1421      H1450   0.990       .  S
O1422      C1423   1.281       .  A
C1423      C1586   1.451       .  S
O1424     Zr3111   2.436   1_554  S
O1424      H1443   0.990       .  S
O1424      H1447   0.990       .  S
O1425      H1439   0.990       .  S
O1425      H1446   0.990       .  S
O1426      C1430   1.286       .  A
O1427      C1430   1.291       .  A
O1428      H1438   0.990       .  S
O1429      H1442   0.990       .  S
C1430      C1592   1.456       .  S
Zr1453     O1454   2.443       .  S
Zr1453     O1455   2.446       .  S
Zr1453     O1456   2.383       .  S
Zr1453     O1459   2.363       .  S
Zr1453     O1462   2.384       .  S
Zr1453     O1463   2.400       .  S
Zr1453     O1464   2.408       .  S
Zr1453     O1461   2.248       .  S
O1454      H1510   0.991       .  S
O1454      H1518   0.990       .  S
O1455      C1475   1.285       .  A
O1456      C1477   1.276       .  A
O1457     Zr1467   2.484       .  S
O1457      C1476   1.294       .  A
O1458     Zr1466   2.519       .  S
O1458      C1477   1.297       .  A
O1459      C1476   1.269       .  A
O1460     Zr1468   2.384       .  S
O1460      C1475   1.273       .  A
O1461     Zr1466   2.287       .  S
O1461     Zr1468   2.291       .  S
O1462     Zr1467   2.397       .  S
O1462     Zr1468   2.365       .  S
O1462      H1497   0.966       .  S
O1463     Zr1466   2.393       .  S
O1463     Zr1483   2.404       .  S
O1463      H1500   0.965       .  S
O1464     Zr1467   2.397       .  S
O1464     Zr1483   2.415       .  S
Zr1465     O1490   2.443       .  S
Zr1465     O1484   2.429       .  S
Zr1465     O1492   2.437       .  S
Zr1465     O1480   2.423       .  S
Zr1465     O1471   2.397       .  S
Zr1465     O1472   2.400       .  S
Zr1465     O1473   2.392       .  S
Zr1465     O1474   2.381       .  S
Zr1466     O1485   2.439       .  S
Zr1466     O1478   2.433       .  S
Zr1466     O1479   2.451       .  S
Zr1466     O1472   2.420       .  S
Zr1466     O1473   2.411       .  S
Zr1467     O1469   2.434       .  S
Zr1467     O1491   2.438       .  S
Zr1467     O1493   2.480       .  S
Zr1467     O1471   2.405       .  S
Zr1467     O1474   2.411       .  S
Zr1468     O1494   2.438       .  S
Zr1468     O1495   2.438       .  S
Zr1468     O1470   2.439       .  S
Zr1468     O1471   2.386       .  S
Zr1468     O1472   2.351       .  S
O1469      H1506   0.990       .  S
O1470      H1501   0.990       .  S
O1470      H1515   0.989       .  S
O1472      H1498   0.962       .  S
O1473     Zr1483   2.374       .  S
O1474     Zr1483   2.366       .  S
O1474      H1499   0.966       .  S
C1475      C1599   1.422       .  S
C1476      C1595   1.426       .  S
C1477      C1562   1.499       .  S
O1478      H1514   0.990       .  S
O1479      C1481   1.288       .  A
O1480      C1481   1.283       .  A
C1481      C1590   1.426       .  S
O1482     Zr1483   2.439       .  S
O1482      H1511   0.990       .  S
Zr1483     O1486   2.437       .  S
Zr1483     O1487   2.442       .  S
Zr1483     O1488   2.464       .  S
O1484      C1489   1.282       .  A
O1485      H1502   0.990       .  S
O1485      H1517   0.990       .  S
O1486      H1503   0.990       .  S
O1487      H1507   0.990       .  S
O1487      H1516   0.990       .  S
O1488      C1489   1.288       .  A
C1489      C1585   1.452       .  S
O1490      H1509   0.990       .  S
O1490      H1513   0.990       .  S
O1491      H1505   0.990       .  S
O1491      H1512   0.990       .  S
O1492      C1496   1.291       .  A
O1493      C1496   1.289       .  A
O1494      H1504   0.990       .  S
O1495      H1508   0.990       .  S
C1496      C1543   1.499       .  S
Zr1519     O3232   2.439   1_554  S
Zr1519     O1521   2.449   1_554  S
Zr1519     O1525   2.367       .  S
Zr1519     O3234   2.363   1_554  S
Zr1519     O1528   2.374       .  S
Zr1519     O1529   2.402       .  S
Zr1519     O1530   2.404       .  S
Zr1519     O1527   2.257       .  S
O1520     Zr3231   2.438       .  S
O1520      H1576   0.990       .  S
O1520      H1584   0.990       .  S
O1521      C1541   1.285       .  A
O1522     Zr3231   2.365       .  S
O1522      C1543   1.272       .  A
O1523     Zr1533   2.543       .  S
O1523      C1542   1.306       .  A
O1524     Zr3244   2.528       .  S
O1524      C1543   1.299       .  A
O1525      C1542   1.268       .  A
O1526     Zr1534   2.373       .  S
O1526      C1541   1.270   1_554  A
O1527     Zr1532   2.284       .  S
O1527     Zr1534   2.288       .  S
O1528     Zr1533   2.390       .  S
O1528     Zr1534   2.375       .  S
O1528      H1563   0.966       .  S
O1529     Zr1532   2.388       .  S
O1529     Zr1549   2.420       .  S
O1529      H1566   0.966       .  S
O1530     Zr1533   2.395       .  S
O1530     Zr1549   2.431       .  S
Zr1531     O1556   2.439       .  S
Zr1531     O1550   2.413       .  S
Zr1531     O1558   2.430       .  S
Zr1531     O1546   2.438       .  S
Zr1531     O1537   2.399       .  S
Zr1531     O1538   2.399       .  S
Zr1531     O1539   2.386       .  S
Zr1531     O1540   2.387       .  S
Zr1532     O1551   2.437       .  S
Zr1532     O1544   2.434       .  S
Zr1532     O1545   2.458       .  S
Zr1532     O3236   2.527   1_554  S
Zr1532     O1538   2.422       .  S
Zr1532     O1539   2.408       .  S
Zr1533     O1535   2.435       .  S
Zr1533     O1557   2.435       .  S
Zr1533     O1559   2.494       .  S
Zr1533     O1537   2.423       .  S
Zr1533     O1540   2.423       .  S
Zr1534     O1560   2.439       .  S
Zr1534     O1561   2.438       .  S
Zr1534     O1536   2.438       .  S
Zr1534     O1537   2.384       .  S
Zr1534     O1538   2.358       .  S
O1535      H1572   0.990       .  S
O1536      H1567   0.990       .  S
O1536      H1581   0.990       .  S
O1538      H1564   0.965       .  S
O1539     Zr1549   2.367       .  S
O1540     Zr1549   2.357       .  S
O1540      H1565   0.965       .  S
C1541      C1588   1.420       .  S
C1542      C1594   1.460       .  S
O1544      H1580   0.989       .  S
O1545      C1547   1.289       .  A
O1546      C1547   1.287       .  A
C1547      C1598   1.442       .  S
O1548     Zr1549   2.437       .  S
O1548      H1577   0.990       .  S
Zr1549     O1552   2.436       .  S
Zr1549     O1553   2.441       .  S
Zr1549     O1554   2.489       .  S
O1550      C1555   1.278       .  A
O1551      H1568   0.990       .  S
O1551      H1583   0.990   1_554  S
O1552      H1569   0.990       .  S
O1553      H1573   0.990       .  S
O1553      H1582   0.990       .  S
O1554      C1555   1.293       .  A
C1555      C1604   1.458       .  S
O1556      H1575   0.990       .  S
O1556      H1579   0.990       .  S
O1557      H1571   0.990       .  S
O1557      H1578   0.990       .  S
O1558      C1562   1.290       .  A
O1559      C1562   1.294       .  A
O1560      H1570   0.990       .  S
O1561      H1574   0.990       .  S
C1585      C1586   1.216       .  T
C1587      C1588   1.199       .  T
C1589      C1590   1.201       .  T
C1591      C1592   1.218       .  T
C1593      C3306   1.225       .  T
C1594      C3305   1.224       .  T
C1595      C1596   1.204       .  T
C1597      C1598   1.210       .  T
C1599      C1600   1.198       .  T
C1601      C1602   1.223       .  T
C1603      C1604   1.220       .  T
C1605      C1606   1.199       .  T
C1607      C1608   1.216       .  T
C1609      C1610   1.203       .  T
C1611      C1612   1.199   1_455  T
C1613      C1614   1.205       .  T
C1615      C1616   1.206       .  T
C1617      C1618   1.201       .  T
C1619      C1620   1.183       .  T
C1621      C1622   1.211       .  T
C1623      C2594   1.412       .  S
C1623      C1624   1.193       .  T
C1625      C3338   1.199       .  T
C1626      C3337   1.198       .  T
C1627      C1628   1.190       .  T
C1629      C1630   1.223       .  T
C1631      C1632   1.219       .  T
C1633      C2329   1.487   1_455  S
C1633      C1634   1.241       .  T
C1635      C1636   1.196       .  T
C1637      C1638   1.223       .  T
C1639      C1640   1.208   1_554  T
C1641      C1642   1.239       .  T
C1643      C2264   1.416       .  S
C1643      C1644   1.196       .  T
C1645      C1646   1.197       .  T
C1647      C1648   1.213       .  T
C1649      C3362   1.216       .  T
C1650      C3361   1.216       .  T
C1651      C1652   1.238   1_655  T
C1653      C1654   1.196       .  T
C1655      C1656   1.212       .  T
C1657      C1658   1.195       .  T
C1659      C1660   1.246       .  T
C1661      C1662   1.204       .  T
C1663      C1664   1.201       .  T
C1665      C1666   1.216       .  T
C1667      C1668   1.223       .  T
C1669      C1670   1.221       .  T
C1671      C1672   1.192       .  T
C1673      C1674   1.196       .  T
C1675      C1676   1.214       .  T
C1677      C1678   1.191       .  T
C1679      C1680   1.233   1_565  T
C1681      C1682   1.196       .  T
C1683      C1684   1.193       .  T
C1685      C1686   1.201       .  T
C1687      C1688   1.212       .  T
C1689      C1690   1.203       .  T
C1691      C1692   1.188       .  T
C1693      C1694   1.195       .  T
C1695      C1696   1.224       .  T
C1697      C1698   1.209       .  T
C1699      C1700   1.197       .  T
C1701      C1702   1.235       .  T
C1703      C3416   1.192       .  T
C1704      C3415   1.191       .  T
C1705      C3056   1.408       .  S
C1705      C1706   1.192   1_556  T
C1707      C1708   1.196       .  T
C1709      C1710   1.197       .  T
C1711      C1712   1.224       .  T
C1712      C2005   1.460       .  S
Zr1713     O1714   2.439       .  S
Zr1713     O1715   2.522       .  S
Zr1713     O1716   2.445       .  S
Zr1713     O1719   2.380       .  S
Zr1713     O1721   2.363       .  S
Zr1713     O1722   2.376       .  S
Zr1713     O1723   2.432       .  S
Zr1713     O1724   2.436       .  S
O1714      H1770   0.990       .  S
O1714      H1778   0.990       .  S
O1715      C1735   1.301       .  A
O1716      C1737   1.287       .  A
O1717     Zr1727   2.450       .  S
O1717      C1736   1.286       .  A
O1718     Zr1726   2.407       .  S
O1718      C1737   1.276       .  A
O1719      C1736   1.275       .  A
O1720     Zr1728   2.407       .  S
O1720      C1735   1.276       .  A
O1721     Zr1726   2.403       .  S
O1721     Zr1728   2.372       .  S
O1722     Zr1727   2.373       .  S
O1722     Zr1728   2.379       .  S
O1722      H1757   0.963       .  S
O1723     Zr1726   2.388       .  S
O1723     Zr1743   2.440       .  S
O1723      H1760   0.966       .  S
O1724     Zr1727   2.392       .  S
O1724     Zr1743   2.443       .  S
Zr1725     O1750   2.430       .  S
Zr1725     O1744   2.398       .  S
Zr1725     O1752   2.418       .  S
Zr1725     O1740   2.413       .  S
Zr1725     O1731   2.411       .  S
Zr1725     O1732   2.404       .  S
Zr1725     O1733   2.372       .  S
Zr1725     O1734   2.398       .  S
Zr1726     O1745   2.432       .  S
Zr1726     O1738   2.435       .  S
Zr1726     O1739   2.403       .  S
Zr1726     O1732   2.403       .  S
Zr1726     O1733   2.389       .  S
Zr1727     O1729   2.434       .  S
Zr1727     O1751   2.431       .  S
Zr1727     O1753   2.436       .  S
Zr1727     O1731   2.404       .  S
Zr1727     O1734   2.389       .  S
Zr1728     O1754   2.434       .  S
Zr1728     O1755   2.438       .  S
Zr1728     O1730   2.442       .  S
Zr1728     O1731   2.380       .  S
Zr1728     O1732   2.379       .  S
O1729      H1766   0.990       .  S
O1730      H1775   0.990       .  S
O1732      H1758   0.963       .  S
O1733     Zr1743   2.370       .  S
O1734     Zr1743   2.328       .  S
O1734      H1759   0.964       .  S
C1735      C3423   1.461       .  S
C1736      C3419   1.421       .  S
C1737      C3421   1.432       .  S
O1738      H1774   0.990       .  S
O1739      C1741   1.276       .  A
O1740      C1741   1.278       .  A
C1741      C3416   1.408       .  S
O1742     Zr1743   2.439       .  S
O1742      H1771   0.990       .  S
Zr1743     O1746   2.436       .  S
Zr1743     O1747   2.439       .  S
Zr1743     O1748   2.549       .  S
O1744      C1749   1.278       .  A
O1745      H1762   0.990       .  S
O1745      H1777   0.990       .  S
O1746      H1763   0.990       .  S
O1747      H1767   0.990       .  S
O1747      H1776   0.990       .  S
O1748      C1749   1.306       .  A
C1749      C3413   1.476       .  S
O1750      H1769   0.990       .  S
O1750      H1773   0.989       .  S
O1751      H1765   0.990       .  S
O1751      H1772   0.990       .  S
O1752      C1756   1.265       .  A
O1753      C1756   1.273       .  A
O1754      H1764   0.990       .  S
C1756      C3418   1.406       .  S
Zr1779     O1781   2.458       .  S
Zr1779     O1782   2.387       .  S
Zr1779     O1785   2.371       .  S
Zr1779     O1787   2.366       .  S
Zr1779     O1788   2.377       .  S
Zr1779     O1789   2.403       .  S
Zr1779     O1790   2.413       .  S
O1780      H1836   0.990       .  S
O1780      H1844   0.990       .  S
O1781      C1801   1.288       .  A
O1782      C1803   1.272       .  A
O1783     Zr1793   2.451       .  S
O1783      C1802   1.284       .  A
O1784     Zr1792   2.466       .  S
O1784      C1803   1.286       .  A
O1785      C1802   1.271       .  A
O1786     Zr1794   2.394       .  S
O1786      C1801   1.275       .  A
O1787     Zr1792   2.378       .  S
O1787     Zr1794   2.359       .  S
O1788     Zr1793   2.395       .  S
O1788     Zr1794   2.376       .  S
O1788      H1823   0.965       .  S
O1789     Zr1792   2.390       .  S
O1789     Zr1809   2.424       .  S
O1789      H1826   0.966       .  S
O1790     Zr1793   2.392       .  S
O1790     Zr1809   2.428       .  S
Zr1791     O1816   2.438       .  S
Zr1791     O1810   2.441       .  S
Zr1791     O1818   2.433       .  S
Zr1791     O1806   2.418       .  S
Zr1791     O1797   2.363       .  S
Zr1791     O1798   2.420       .  S
Zr1791     O1799   2.379       .  S
Zr1791     O1800   2.385       .  S
Zr1792     O1811   2.435       .  S
Zr1792     O1804   2.438       .  S
Zr1792     O1805   2.411       .  S
Zr1792     O1798   2.412       .  S
Zr1792     O1799   2.413       .  S
Zr1793     O1795   2.436       .  S
Zr1793     O1817   2.442       .  S
Zr1793     O1819   2.449       .  S
Zr1793     O1797   2.362       .  S
Zr1793     O1800   2.413       .  S
Zr1794     O1820   2.435       .  S
Zr1794     O1821   2.435       .  S
Zr1794     O1796   2.440       .  S
Zr1794     O1797   2.352       .  S
Zr1794     O1798   2.370       .  S
O1795      H1832   0.990       .  S
O1796      H1827   0.990       .  S
O1796      H1841   0.990       .  S
O1798      H1824   0.963       .  S
O1799     Zr1809   2.385       .  S
O1800     Zr1809   2.389       .  S
O1800      H1825   0.966       .  S
C1801      C3409   1.433       .  S
C1802      C3412   1.414       .  S
C1803      C3422   1.427       .  S
O1804      H1840   0.991       .  S
O1805      C1807   1.278       .  A
O1806      C1807   1.278       .  A
C1807      C3404   1.404       .  S
O1808      H1837   0.990       .  S
Zr1809     O1812   2.438       .  S
Zr1809     O1814   2.472       .  S
O1810      C1815   1.281       .  A
O1811      H1828   0.990       .  S
O1811      H1843   0.990       .  S
O1813      H1833   0.990       .  S
O1813      H1842   0.990       .  S
O1814      C1815   1.288       .  A
C1815      C3407   1.464       .  S
O1816      H1835   0.988       .  S
O1816      H1839   0.990       .  S
O1817      H1831   0.990       .  S
O1817      H1838   0.991       .  S
O1818      C1822   1.283       .  A
O1819      C1822   1.284       .  A
O1820      H1830   0.990       .  S
O1821      H1834   0.990       .  S
C1822      C3405   1.415       .  S
Zr1845     O1846   2.439       .  S
Zr1845     O1847   2.468       .  S
Zr1845     O1848   2.431       .  S
Zr1845     O1851   2.394       .  S
Zr1845     O1853   2.368       .  S
Zr1845     O1854   2.382       .  S
Zr1845     O1855   2.406       .  S
Zr1845     O1856   2.419       .  S
O1846      H1902   0.990       .  S
O1846      H1910   0.990       .  S
O1847      C1867   1.290       .  A
O1848      C1869   1.281       .  A
O1849     Zr1859   2.456       .  S
O1849      C1868   1.287       .  A
O1850     Zr1858   2.453       .  S
O1850      C1869   1.286       .  A
O1851      C1868   1.276       .  A
O1852     Zr1860   2.380       .  S
O1852      C1867   1.273       .  A
O1853     Zr1858   2.373       .  S
O1853     Zr1860   2.391       .  S
O1854     Zr1859   2.384       .  S
O1854     Zr1860   2.358       .  S
O1854      H1889   0.965       .  S
O1855     Zr1858   2.386       .  S
O1855     Zr1875   2.428       .  S
O1855      H1892   0.966       .  S
O1856     Zr1859   2.397       .  S
O1856     Zr1875   2.430       .  S
Zr1857     O1882   2.435       .  S
Zr1857     O1876   2.423       .  S
Zr1857     O1884   2.401       .  S
Zr1857     O1872   2.439       .  S
Zr1857     O1863   2.399       .  S
Zr1857     O1864   2.394       .  S
Zr1857     O1865   2.380       .  S
Zr1857     O1866   2.383       .  S
Zr1858     O1877   2.436   1_455  S
Zr1858     O1870   2.434       .  S
Zr1858     O1871   2.393       .  S
Zr1858     O1864   2.407       .  S
Zr1858     O1865   2.402       .  S
Zr1859     O1861   2.435       .  S
Zr1859     O1883   2.435       .  S
Zr1859     O1885   2.436       .  S
Zr1859     O1863   2.407       .  S
Zr1859     O1866   2.388       .  S
Zr1860     O1886   2.435       .  S
Zr1860     O1887   2.437       .  S
Zr1860     O1862   2.439       .  S
Zr1860     O1863   2.383       .  S
Zr1860     O1864   2.362       .  S
O1861      H1898   0.990       .  S
O1862      H1893   0.990       .  S
O1862      H1907   0.990       .  S
O1864      H1890   0.965       .  S
O1865     Zr1875   2.367       .  S
O1866     Zr1875   2.341       .  S
O1866      H1891   0.963       .  S
C1867      C3402   1.430       .  S
C1868      C3398   1.426       .  S
C1869      C3399   1.449       .  S
O1870      H1906   0.990       .  S
O1871      C1873   1.277       .  A
O1872      C1873   1.285       .  A
C1873      C3395   1.413   1_455  S
O1874     Zr1875   2.435   1_655  S
O1874      H1903   0.990       .  S
Zr1875     O1878   2.433   1_455  S
Zr1875     O1879   2.436   1_455  S
Zr1875     O1880   2.516   1_455  S
O1876      C1881   1.281   1_455  A
O1877      H1894   0.990       .  S
O1877      H1909   0.990       .  S
O1878      H1895   0.990       .  S
O1879      H1899   0.990   1_655  S
O1879      H1908   0.990   1_655  S
O1880      C1881   1.298       .  A
C1881      C3391   1.471       .  S
O1882      H1901   0.990       .  S
O1882      H1905   0.990       .  S
O1883      H1897   0.990       .  S
O1883      H1904   0.990       .  S
O1884      C1888   1.281       .  A
O1885      C1888   1.284       .  A
O1886      H1896   0.990       .  S
O1887      H1900   0.990       .  S
C1888      C3394   1.417   1_565  S
Zr1911     O1912   2.441       .  S
Zr1911     O1913   2.501       .  S
Zr1911     O1914   2.433       .  S
Zr1911     O1917   2.397       .  S
Zr1911     O1919   2.374       .  S
Zr1911     O1920   2.402       .  S
Zr1911     O1921   2.430       .  S
Zr1911     O1922   2.428       .  S
O1912      H1968   0.990       .  S
O1912      H1976   0.990       .  S
O1913      C1933   1.290       .  A
O1914      C1935   1.281       .  A
O1915     Zr1925   2.412       .  S
O1915      C1934   1.270       .  A
O1916     Zr1924   2.457   1_455  S
O1916      C1935   1.285       .  A
O1917      C1934   1.265       .  A
O1918     Zr1926   2.377       .  S
O1918      C1933   1.263       .  A
O1919     Zr1924   2.386   1_455  S
O1919     Zr1926   2.371       .  S
O1920     Zr1925   2.420       .  S
O1920     Zr1926   2.393       .  S
O1920      H1955   0.966       .  S
O1921     Zr1924   2.385   1_455  S
O1921     Zr1941   2.452   1_455  S
O1921      H1958   0.966   1_455  S
O1922     Zr1925   2.398       .  S
O1922     Zr1941   2.407   1_455  S
Zr1923     O1948   2.437       .  S
Zr1923     O1942   2.434   1_455  S
Zr1923     O1950   2.447       .  S
Zr1923     O1938   2.430   1_455  S
Zr1923     O1929   2.355       .  S
Zr1923     O1930   2.414       .  S
Zr1923     O1931   2.384   1_455  S
Zr1923     O1932   2.390       .  S
Zr1924     O1943   2.434       .  S
Zr1924     O1936   2.438       .  S
Zr1924     O1937   2.412       .  S
Zr1924     O1930   2.423   1_655  S
Zr1924     O1931   2.409       .  S
Zr1925     O1927   2.439       .  S
Zr1925     O1949   2.441       .  S
Zr1925     O1951   2.436       .  S
Zr1925     O1929   2.353       .  S
Zr1925     O1932   2.390       .  S
Zr1926     O1952   2.437       .  S
Zr1926     O1953   2.435       .  S
Zr1926     O1928   2.435       .  S
Zr1926     O1929   2.346       .  S
Zr1926     O1930   2.371       .  S
O1927      H1964   0.990       .  S
O1928      H1959   0.990       .  S
O1928      H1973   0.990       .  S
O1930      H1956   0.963       .  S
O1931     Zr1941   2.383       .  S
O1932     Zr1941   2.389   1_455  S
O1932      H1957   0.964       .  S
C1933      C3387   1.448       .  S
C1934      C3390   1.403       .  S
C1935      C3400   1.449       .  S
O1936      H1972   0.991       .  S
O1937      C1939   1.278       .  A
O1938      C1939   1.281       .  A
C1939      C3383   1.411       .  S
O1940     Zr1941   2.435       .  S
O1940      H1969   0.990       .  S
Zr1941     O1944   2.436       .  S
Zr1941     O1945   2.438   1_655  S
Zr1941     O1946   2.492       .  S
O1942      C1947   1.281       .  A
O1943      H1960   0.990       .  S
O1943      H1975   0.990       .  S
O1944      H1961   0.990       .  S
O1945      H1965   0.990       .  S
O1945      H1974   0.990       .  S
O1946      C1947   1.293       .  A
C1947      C3381   1.463       .  S
O1948      H1967   0.991       .  S
O1948      H1971   0.989   1_455  S
O1949      H1963   0.990       .  S
O1949      H1970   0.991       .  S
O1950      C1954   1.286       .  A
O1951      C1954   1.282       .  A
O1952      H1962   0.990       .  S
O1953      H1966   0.990       .  S
C1954      C3386   1.415       .  S
Zr1977     O1978   2.437       .  S
Zr1977     O1979   2.410       .  S
Zr1977     O1980   2.435       .  S
Zr1977     O1983   2.455       .  S
Zr1977     O1985   2.377       .  S
Zr1977     O1986   2.393       .  S
Zr1977     O1987   2.408       .  S
Zr1977     O1988   2.379       .  S
O1978      H2034   0.990       .  S
O1978      H2042   0.990       .  S
O1979      C1999   1.278       .  A
O1980      C2001   1.287       .  A
O1981     Zr1991   2.419       .  S
O1981      C2000   1.280       .  A
O1982     Zr1990   2.483       .  S
O1982      C2001   1.295       .  A
O1983      C2000   1.290       .  A
O1984     Zr1992   2.488       .  S
O1984      C1999   1.294       .  A
O1985     Zr1990   2.404       .  S
O1985     Zr1992   2.353       .  S
O1986     Zr1991   2.403       .  S
O1986     Zr1992   2.378       .  S
O1986      H2021   0.966       .  S
O1987     Zr1990   2.419       .  S
O1987     Zr2007   2.389       .  S
O1987      H2024   0.965       .  S
O1988     Zr1991   2.406       .  S
O1988     Zr2007   2.365       .  S
Zr1989     O2004   2.377       .  S
Zr1989     O1995   2.403       .  S
Zr1989     O1996   2.408       .  S
Zr1989     O1997   2.373       .  S
Zr1989     O1998   2.367       .  S
Zr1990     O2009   2.436       .  S
Zr1990     O2002   2.435       .  S
Zr1990     O2003   2.532       .  S
Zr1990     O1996   2.398       .  S
Zr1990     O1997   2.377       .  S
Zr1991     O1993   2.436   1_556  S
Zr1991     O1995   2.384       .  S
Zr1991     O1998   2.364       .  S
Zr1992     O2018   2.435       .  S
Zr1992     O2019   2.435       .  S
Zr1992     O1994   2.436       .  S
Zr1992     O1995   2.423       .  S
Zr1992     O1996   2.429       .  S
O1994      H2025   0.990       .  S
O1994      H2039   0.990       .  S
O1996      H2022   0.967       .  S
O1997     Zr2007   2.371       .  S
O1998     Zr2007   2.388       .  S
C1999      C3388   1.454       .  S
C2000      C3397   1.432       .  S
C2001      C2067   1.488       .  S
O2002      H2038   0.990       .  S
O2003      C2005   1.304       .  A
O2004      C2005   1.271       .  A
O2006     Zr2007   2.435       .  S
O2006      H2035   0.990       .  S
Zr2007     O2010   2.435       .  S
Zr2007     O2011   2.438       .  S
Zr2007     O2012   2.379       .  S
O2008      C2013   1.284       .  A
O2009      H2026   0.990       .  S
O2009      H2041   0.990       .  S
O2010      H2027   0.990       .  S
O2011      H2031   0.990       .  S
O2011      H2040   0.990       .  S
C2013      C3411   1.412       .  S
O2014      H2033   0.990       .  S
O2014      H2037   0.990       .  S
O2015      H2029   0.990       .  S
O2016      C2020   1.273       .  A
O2017      C2020   1.294       .  A
O2018      H2028   0.990       .  S
O2019      H2032   0.990       .  S
C2020      C2086   1.481       .  S
Zr2043     O2044   2.437       .  S
Zr2043     O2045   2.392       .  S
Zr2043     O2046   2.443       .  S
Zr2043     O2049   2.425       .  S
Zr2043     O2051   2.371       .  S
Zr2043     O2052   2.398       .  S
Zr2043     O2053   2.396       .  S
Zr2043     O2054   2.381       .  S
O2044      H2100   0.990       .  S
O2044      H2108   0.990       .  S
O2045      C2065   1.275       .  A
O2046      C2067   1.288       .  A
O2047     Zr2057   2.400       .  S
O2047      C2066   1.277       .  A
O2048     Zr2056   2.469       .  S
O2048      C2067   1.290       .  A
O2049      C2066   1.284       .  A
O2050     Zr2058   2.474       .  S
O2050      C2065   1.291       .  A
O2051     Zr2056   2.390       .  S
O2051     Zr2058   2.360       .  S
O2052     Zr2057   2.394       .  S
O2052     Zr2058   2.372       .  S
O2052      H2087   0.965       .  S
O2053     Zr2056   2.401       .  S
O2053     Zr2073   2.402       .  S
O2053      H2090   0.966       .  S
O2054     Zr2057   2.399       .  S
O2054     Zr2073   2.357       .  S
Zr2055     O2080   2.442       .  S
Zr2055     O2074   2.450       .  S
Zr2055     O2082   2.412       .  S
Zr2055     O2070   2.388       .  S
Zr2055     O2061   2.401       .  S
Zr2055     O2062   2.416       .  S
Zr2055     O2063   2.380       .  S
Zr2055     O2064   2.362       .  S
Zr2056     O2075   2.435       .  S
Zr2056     O2068   2.435       .  S
Zr2056     O2069   2.466       .  S
Zr2056     O2062   2.404       .  S
Zr2056     O2063   2.392       .  S
Zr2057     O2059   2.436       .  S
Zr2057     O2081   2.436       .  S
Zr2057     O2083   2.466       .  S
Zr2057     O2061   2.375       .  S
Zr2057     O2064   2.383       .  S
Zr2058     O2084   2.437       .  S
Zr2058     O2085   2.434       .  S
Zr2058     O2060   2.437       .  S
Zr2058     O2061   2.418       .  S
Zr2058     O2062   2.416       .  S
O2059      H2096   0.990       .  S
O2060      H2091   0.990       .  S
O2060      H2105   0.990       .  S
O2062      H2088   0.966       .  S
O2063     Zr2073   2.375       .  S
O2064     Zr2073   2.393       .  S
O2064      H2089   0.966       .  S
C2065      C3401   1.436       .  S
C2066      C3389   1.406       .  S
O2068      H2104   0.991       .  S
O2069      C2071   1.290       .  A
O2070      C2071   1.275       .  A
C2071      C3410   1.431       .  S
O2072     Zr2073   2.434       .  S
O2072      H2101   0.990       .  S
Zr2073     O2076   2.437       .  S
Zr2073     O2077   2.439       .  S
Zr2073     O2078   2.392       .  S
O2074      C2079   1.286       .  A
O2075      H2092   0.990       .  S
O2075      H2107   0.990       .  S
O2076      H2093   0.990       .  S
O2077      H2097   0.990       .  S
O2077      H2106   0.990       .  S
O2078      C2079   1.273       .  A
C2079      C3420   1.424       .  S
O2080      H2099   0.990       .  S
O2080      H2103   0.990       .  S
O2081      H2095   0.990       .  S
O2081      H2102   0.990       .  S
O2082      C2086   1.283       .  A
O2083      C2086   1.285       .  A
O2084      H2094   0.990       .  S
O2085      H2098   0.990       .  S
Zr2109     O2110   2.439       .  S
Zr2109     O2111   2.467       .  S
Zr2109     O2112   2.396       .  S
Zr2109     O2115   2.458       .  S
Zr2109     O2117   2.373       .  S
Zr2109     O2118   2.385       .  S
Zr2109     O2119   2.425       .  S
Zr2109     O2120   2.272       .  S
O2110      H2166   0.990   1_565  S
O2110      H2174   0.990       .  S
O2111      C2131   1.285       .  A
O2112      C2133   1.277       .  A
O2113     Zr2123   2.435       .  S
O2113      C2132   1.282       .  A
O2114     Zr2122   2.415       .  S
O2114      C2133   1.279       .  A
O2115      C2132   1.289       .  A
O2116     Zr2124   2.517       .  S
O2116      C2131   1.297       .  A
O2117     Zr2122   2.397       .  S
O2117     Zr2124   2.356       .  S
O2118     Zr2123   2.432       .  S
O2118     Zr2124   2.394       .  S
O2118      H2153   0.966   1_565  S
O2119     Zr2122   2.415       .  S
O2119     Zr2139   2.380       .  S
O2119      H2156   0.965       .  S
O2120     Zr2123   2.271       .  S
O2120     Zr2139   2.282       .  S
Zr2121     O2146   2.441       .  S
Zr2121     O2140   2.518       .  S
Zr2121     O2148   2.409       .  S
Zr2121     O2136   2.378       .  S
Zr2121     O2127   2.429       .  S
Zr2121     O2128   2.429       .  S
Zr2121     O2129   2.367       .  S
Zr2121     O2130   2.374       .  S
Zr2122     O2141   2.437       .  S
Zr2122     O2134   2.436       .  S
Zr2122     O2135   2.450       .  S
Zr2122     O2128   2.389       .  S
Zr2122     O2129   2.390       .  S
Zr2123     O2125   2.440   1_565  S
Zr2123     O2147   2.439   1_565  S
Zr2123     O2149   2.480       .  S
Zr2123     O2127   2.378       .  S
Zr2123     O2130   2.401       .  S
Zr2124     O2150   2.436   1_565  S
Zr2124     O2151   2.435       .  S
Zr2124     O2126   2.437       .  S
Zr2124     O2127   2.449       .  S
Zr2124     O2128   2.428       .  S
O2125      H2162   0.990       .  S
O2126      H2157   0.991       .  S
O2126      H2171   0.990       .  S
O2128      H2154   0.966       .  S
O2129     Zr2139   2.371       .  S
O2130     Zr2139   2.394       .  S
O2130      H2155   0.966       .  S
C2131      C3371   1.498       .  S
C2132      C3373   1.439   1_565  S
C2133      C3403   1.399       .  S
O2134      H2170   0.990       .  S
O2135      C2137   1.286       .  A
O2136      C2137   1.272       .  A
C2137      C3375   1.421       .  S
O2138     Zr2139   2.438       .  S
O2138      H2167   0.990       .  S
Zr2139     O2142   2.443       .  S
Zr2139     O2143   2.437       .  S
Zr2139     O2144   2.405       .  S
O2140      C2145   1.299       .  A
O2141      H2158   0.990       .  S
O2141      H2173   0.990       .  S
O2142      H2159   0.990       .  S
O2143      H2163   0.990       .  S
O2143      H2172   0.990       .  S
O2144      C2145   1.275       .  A
C2145      C3379   1.467       .  S
O2146      H2165   0.991       .  S
O2146      H2169   0.990       .  S
O2147      H2161   0.990       .  S
O2147      H2168   0.990       .  S
O2148      C2152   1.278       .  A
O2149      C2152   1.290       .  A
O2150      H2160   0.990       .  S
O2151      H2164   0.990       .  S
C2152      C3378   1.451       .  S
Zr2175     O2176   2.411       .  S
Zr2175     O2177   2.387       .  S
Zr2175     O2178   2.381       .  S
Zr2175     O2181   2.420       .  S
Zr2175     O2183   2.376       .  S
Zr2175     O2184   2.413       .  S
Zr2175     O2185   2.424       .  S
Zr2175     O2186   2.403       .  S
O2176      H2232   0.988       .  S
O2176      H2240   0.988       .  S
O2177      C2197   1.276       .  A
O2178      C2199   1.262       .  A
O2179     Zr2189   2.413       .  S
O2179      C2198   1.267       .  A
O2180     Zr2188   2.458       .  S
O2180      C2199   1.256       .  A
O2181      C2198   1.269       .  A
O2182     Zr2190   2.567       .  S
O2182      C2197   1.311       .  A
O2183     Zr2188   2.442       .  S
O2183     Zr2190   2.301       .  S
O2184     Zr2189   2.418       .  S
O2184     Zr2190   2.369       .  S
O2184      H2219   0.964       .  S
O2185     Zr2188   2.471       .  S
O2185     Zr2205   2.380       .  S
O2185      H2222   0.969       .  S
O2186     Zr2189   2.410       .  S
O2186     Zr2205   2.369       .  S
Zr2187     O2212   2.444       .  S
Zr2187     O2206   2.504       .  S
Zr2187     O2214   2.410       .  S
Zr2187     O2202   2.371       .  S
Zr2187     O2193   2.407       .  S
Zr2187     O2194   2.432       .  S
Zr2187     O2195   2.377       .  S
Zr2187     O2196   2.363       .  S
Zr2188     O2207   2.437       .  S
Zr2188     O2200   2.437       .  S
Zr2188     O2201   2.436       .  S
Zr2188     O2194   2.404       .  S
Zr2188     O2195   2.387       .  S
Zr2189     O2191   2.436       .  S
Zr2189     O2213   2.434   1_565  S
Zr2189     O2215   2.478       .  S
Zr2189     O2193   2.377       .  S
Zr2189     O2196   2.375       .  S
Zr2190     O2216   2.432   1_565  S
Zr2190     O2217   2.436   1_565  S
Zr2190     O2192   2.435       .  S
Zr2190     O2193   2.445       .  S
Zr2190     O2194   2.444       .  S
O2191      H2228   0.990       .  S
O2192      H2223   0.990   1_565  S
O2192      H2237   0.990       .  S
O2194      H2220   0.966       .  S
O2195     Zr2205   2.388       .  S
O2196     Zr2205   2.397       .  S
O2196      H2221   0.965       .  S
C2197      C3363   1.482   1_565  S
C2198      C3365   1.414   1_565  S
C2199      C3396   1.416       .  S
O2200      H2236   0.990       .  S
O2201      C2203   1.283       .  A
O2202      C2203   1.270       .  A
C2203      C3369   1.411       .  S
O2204     Zr2205   2.433       .  S
O2204      H2233   0.990       .  S
Zr2205     O2208   2.435       .  S
Zr2205     O2209   2.437       .  S
Zr2205     O2210   2.367       .  S
O2206      C2211   1.297       .  A
O2207      H2224   0.990       .  S
O2207      H2239   0.990       .  S
O2208      H2225   0.990       .  S
O2209      H2229   0.990       .  S
O2209      H2238   0.990       .  S
O2210      C2211   1.270       .  A
C2211      C3367   1.443       .  S
O2212      H2231   0.990       .  S
O2212      H2235   0.990       .  S
O2213      H2227   0.990       .  S
O2213      H2234   0.990       .  S
O2214      C2218   1.277       .  A
O2215      C2218   1.290       .  A
O2216      H2226   0.991       .  S
O2217      H2230   0.990       .  S
C2218      C3377   1.449       .  S
Zr2241     O2243   2.448       .  S
Zr2241     O2244   2.407   1_556  S
Zr2241     O2247   2.407       .  S
Zr2241     O2249   2.374       .  S
Zr2241     O2250   2.388       .  S
Zr2241     O2251   2.420   1_556  S
Zr2241     O2252   2.418   1_556  S
O2242      H2298   0.990       .  S
O2242      H2306   0.991       .  S
O2243      C2263   1.284       .  A
O2244      C2265   1.277       .  A
O2245     Zr2255   2.437   1_554  S
O2245      C2264   1.278       .  A
O2246     Zr2254   2.429       .  S
O2246      C2265   1.281   1_556  A
O2247      C2264   1.266   1_556  A
O2248     Zr2256   2.516       .  S
O2248      C2263   1.297       .  A
O2249     Zr2254   2.405       .  S
O2249     Zr2256   2.373       .  S
O2250     Zr2255   2.431       .  S
O2250     Zr2256   2.368       .  S
O2250      H2285   0.966       .  S
O2251     Zr2254   2.408   1_554  S
O2251     Zr2271   2.370       .  S
O2251      H2288   0.962       .  S
O2252     Zr2255   2.404   1_554  S
O2252     Zr2271   2.381       .  S
Zr2253     O2278   2.439       .  S
Zr2253     O2272   2.479   1_556  S
Zr2253     O2280   2.421       .  S
Zr2253     O2268   2.377       .  S
Zr2253     O2259   2.416       .  S
Zr2253     O2260   2.426       .  S
Zr2253     O2261   2.362   1_556  S
Zr2253     O2262   2.371       .  S
Zr2254     O2273   2.441   1_556  S
Zr2254     O2266   2.434       .  S
Zr2254     O2267   2.451       .  S
Zr2254     O2260   2.396       .  S
Zr2254     O2261   2.379   1_556  S
Zr2255     O2257   2.437       .  S
Zr2255     O2279   2.437       .  S
Zr2255     O2281   2.483       .  S
Zr2255     O2259   2.394       .  S
Zr2255     O2262   2.401       .  S
Zr2256     O2282   2.435       .  S
Zr2256     O2283   2.436       .  S
Zr2256     O2258   2.437       .  S
Zr2256     O2259   2.447       .  S
Zr2256     O2260   2.423       .  S
O2257      H2294   0.990       .  S
O2258      H2289   0.990       .  S
O2258      H2303   0.990       .  S
O2260      H2286   0.966       .  S
O2261     Zr2271   2.363       .  S
O2262     Zr2271   2.367   1_556  S
O2262      H2287   0.962   1_556  S
C2263      C3354   1.491       .  S
C2265      C3415   1.408       .  S
O2266      H2302   0.990       .  S
O2267      C2269   1.286       .  A
O2268      C2269   1.274       .  A
C2269      C3358   1.419       .  S
O2270      H2299   0.990       .  S
Zr2271     O2274   2.438       .  S
Zr2271     O2276   2.419       .  S
O2272      C2277   1.292       .  A
O2273      H2290   0.990       .  S
O2273      H2305   0.990       .  S
O2275      H2295   0.990       .  S
O2275      H2304   0.990       .  S
O2276      C2277   1.278       .  A
C2277      C3362   1.452       .  S
O2278      H2297   0.991       .  S
O2278      H2301   0.990       .  S
O2279      H2293   0.990       .  S
O2279      H2300   0.990       .  S
O2280      C2284   1.282       .  A
O2281      C2284   1.291       .  A
O2282      H2292   0.990       .  S
O2283      H2296   0.990       .  S
C2284      C3359   1.447       .  S
Zr2307     O2308   2.426       .  S
Zr2307     O2309   2.371       .  S
Zr2307     O2310   2.427       .  S
Zr2307     O2313   2.442       .  S
Zr2307     O2315   2.400       .  S
Zr2307     O2316   2.400       .  S
Zr2307     O2317   2.432       .  S
Zr2307     O2318   2.400       .  S
O2308      H2364   0.990       .  S
O2308      H2372   0.989       .  S
O2310      C2331   1.272       .  A
O2311     Zr2321   2.417       .  S
O2311      C2330   1.266       .  A
O2312     Zr2320   2.402       .  S
O2312      C2331   1.267       .  A
O2313      C2330   1.276       .  A
O2314     Zr2322   2.587       .  S
O2314      C2329   1.314       .  A
O2315     Zr2320   2.413       .  S
O2316     Zr2321   2.431       .  S
O2316      H2351   0.966   1_556  S
O2317     Zr2320   2.433       .  S
O2317     Zr2337   2.383       .  S
O2317      H2354   0.964       .  S
O2318     Zr2321   2.417       .  S
O2318     Zr2337   2.365       .  S
Zr2319     O2338   2.515       .  S
Zr2319     O2346   2.434       .  S
Zr2319     O2325   2.428   1_556  S
Zr2319     O2327   2.353       .  S
Zr2319     O2328   2.371       .  S
Zr2320     O2339   2.435       .  S
Zr2320     O2327   2.354       .  S
Zr2321     O2323   2.437       .  S
Zr2321     O2345   2.434   1_556  S
Zr2321     O2347   2.469       .  S
Zr2321     O2325   2.377   1_556  S
Zr2321     O2328   2.403       .  S
Zr2322     O2348   2.436       .  S
Zr2322     O2349   2.435       .  S
Zr2322     O2324   2.436       .  S
Zr2322     O2326   2.458       .  S
O2323      H2360   0.990       .  S
O2324      H2355   0.990       .  S
O2324      H2369   0.990       .  S
O2326      H2352   0.966       .  S
O2327     Zr2337   2.372       .  S
O2328     Zr2337   2.378       .  S
O2328      H2353   0.962       .  S
C2330      C3347   1.420       .  S
C2331      C3384   1.415       .  S
O2332      H2368   0.990       .  S
O2333      C2335   1.292       .  A
O2334      C2335   1.271       .  A
C2335      C3352   1.435       .  S
O2336     Zr2337   2.436       .  S
O2336      H2365   0.990       .  S
Zr2337     O2340   2.438       .  S
Zr2337     O2341   2.443       .  S
Zr2337     O2342   2.403       .  S
O2338      C2343   1.300       .  A
O2339      H2356   0.989       .  S
O2339      H2371   0.990       .  S
O2340      H2357   0.990       .  S
O2341      H2361   0.990       .  S
O2341      H2370   0.990       .  S
O2342      C2343   1.276       .  A
C2343      C3350   1.456       .  S
O2344      H2363   0.991       .  S
O2344      H2367   0.990       .  S
O2345      H2359   0.990       .  S
O2345      H2366   0.990       .  S
O2346      C2350   1.284       .  A
O2347      C2350   1.290       .  A
O2348      H2358   0.990       .  S
O2349      H2362   0.990       .  S
C2350      C3360   1.447       .  S
Zr2373     O2374   2.440       .  S
Zr2373     O2375   2.442       .  S
Zr2373     O2376   2.389       .  S
Zr2373     O2379   2.390       .  S
Zr2373     O2381   2.362       .  S
Zr2373     O2382   2.385       .  S
Zr2373     O2383   2.400       .  S
Zr2373     O2384   2.408       .  S
O2374      H2430   0.991       .  S
O2374      H2438   0.990       .  S
O2375      C2395   1.284       .  A
O2376      C2397   1.277       .  A
O2377     Zr2387   2.523       .  S
O2377      C2396   1.302       .  A
O2378     Zr2386   2.483       .  S
O2378      C2397   1.291       .  A
O2379      C2396   1.275       .  A
O2380     Zr2388   2.395       .  S
O2380      C2395   1.275       .  A
O2381     Zr2386   2.373       .  S
O2381     Zr2388   2.384       .  S
O2382     Zr2387   2.390       .  S
O2382     Zr2388   2.357       .  S
O2382      H2417   0.965       .  S
O2383     Zr2386   2.394       .  S
O2383     Zr2403   2.402       .  S
O2383      H2420   0.966       .  S
O2384     Zr2387   2.399       .  S
O2384     Zr2403   2.421       .  S
Zr2385     O2410   2.438       .  S
Zr2385     O2404   2.418       .  S
Zr2385     O2412   2.402       .  S
Zr2385     O2400   2.436       .  S
Zr2385     O2391   2.402       .  S
Zr2385     O2392   2.395       .  S
Zr2385     O2393   2.383       .  S
Zr2385     O2394   2.390       .  S
Zr2386     O2405   2.434       .  S
Zr2386     O2398   2.433       .  S
Zr2386     O2399   2.426       .  S
Zr2386     O2392   2.418       .  S
Zr2386     O2393   2.405       .  S
Zr2387     O2389   2.435       .  S
Zr2387     O2411   2.436       .  S
Zr2387     O2413   2.489       .  S
Zr2387     O2391   2.406       .  S
Zr2387     O2394   2.409       .  S
Zr2388     O2414   2.438       .  S
Zr2388     O2415   2.436       .  S
Zr2388     O2390   2.436       .  S
Zr2388     O2391   2.382       .  S
Zr2388     O2392   2.367       .  S
O2389      H2426   0.990       .  S
O2390      H2421   0.991       .  S
O2390      H2435   0.990       .  S
O2392      H2418   0.964       .  S
O2393     Zr2403   2.375       .  S
O2394     Zr2403   2.358       .  S
O2394      H2419   0.966       .  S
C2395      C3357   1.421       .  S
C2396      C3349   1.454       .  S
C2397      C2463   1.474       .  S
O2398      H2434   0.990       .  S
O2399      C2401   1.283       .  A
O2400      C2401   1.285       .  A
C2401      C3376   1.426       .  S
O2402     Zr2403   2.440       .  S
O2402      H2431   0.990       .  S
Zr2403     O2406   2.435       .  S
Zr2403     O2407   2.440       .  S
Zr2403     O2408   2.475       .  S
O2404      C2409   1.278       .  A
O2405      H2422   0.990       .  S
O2405      H2437   0.990       .  S
O2406      H2423   0.990       .  S
O2407      H2427   0.990       .  S
O2407      H2436   0.990       .  S
O2408      C2409   1.291       .  A
C2409      C3368   1.453       .  S
O2410      H2429   0.990       .  S
O2410      H2433   0.990       .  S
O2411      H2425   0.990       .  S
O2411      H2432   0.990       .  S
O2412      C2416   1.280       .  A
O2413      C2416   1.296       .  A
O2414      H2424   0.990       .  S
O2415      H2428   0.990       .  S
C2416      C2482   1.473       .  S
Zr2439     O2441   2.473       .  S
Zr2439     O2445   2.397       .  S
Zr2439     O2447   2.359       .  S
Zr2439     O2448   2.371       .  S
Zr2439     O2449   2.407       .  S
Zr2439     O2450   2.414       .  S
O2440      H2496   0.990   1_554  S
O2440      H2504   0.990       .  S
O2441      C2461   1.291       .  A
O2442      C2463   1.280       .  A
O2443     Zr2453   2.491       .  S
O2443      C2462   1.295       .  A
O2444      C2463   1.287       .  A
O2445      C2462   1.276       .  A
O2446     Zr2454   2.385       .  S
O2446      C2461   1.272       .  A
O2447     Zr2452   2.387       .  S
O2447     Zr2454   2.390       .  S
O2448     Zr2453   2.382       .  S
O2448     Zr2454   2.371       .  S
O2448      H2483   0.966       .  S
O2449     Zr2452   2.383       .  S
O2449     Zr2469   2.416       .  S
O2449      H2486   0.966       .  S
O2450     Zr2453   2.389       .  S
O2450     Zr2469   2.429       .  S
Zr2451     O2476   2.444       .  S
Zr2451     O2470   2.426       .  S
Zr2451     O2478   2.447       .  S
Zr2451     O2466   2.446       .  S
Zr2451     O2457   2.402       .  S
Zr2451     O2458   2.399       .  S
Zr2451     O2459   2.383       .  S
Zr2451     O2460   2.387       .  S
Zr2452     O2471   2.437       .  S
Zr2452     O2464   2.435       .  S
Zr2452     O2465   2.393       .  S
Zr2452     O2458   2.418       .  S
Zr2452     O2459   2.404       .  S
Zr2453     O2455   2.435       .  S
Zr2453     O2477   2.435       .  S
Zr2453     O2479   2.443       .  S
Zr2453     O2457   2.411       .  S
Zr2453     O2460   2.415       .  S
Zr2454     O2480   2.436       .  S
Zr2454     O2481   2.435       .  S
Zr2454     O2456   2.437       .  S
Zr2454     O2457   2.387       .  S
Zr2454     O2458   2.368       .  S
O2455      H2492   0.990       .  S
O2456      H2487   0.990       .  S
O2456      H2501   0.990       .  S
O2458      H2484   0.965       .  S
O2459     Zr2469   2.362       .  S
O2460     Zr2469   2.361       .  S
O2460      H2485   0.965       .  S
C2461      C3351   1.436       .  S
C2462      C3361   1.450       .  S
O2464      H2500   0.990       .  S
O2465      C2467   1.275       .  A
O2466      C2467   1.288       .  A
C2467      C3370   1.414       .  S
O2468     Zr2469   2.439       .  S
O2468      H2497   0.990       .  S
Zr2469     O2472   2.439       .  S
Zr2469     O2473   2.438       .  S
Zr2469     O2474   2.496       .  S
O2470      C2475   1.280       .  A
O2471      H2488   0.990       .  S
O2471      H2503   0.990       .  S
O2472      H2489   0.990       .  S
O2473      H2493   0.990       .  S
O2473      H2502   0.990       .  S
O2474      C2475   1.295       .  A
C2475      C3380   1.469       .  S
O2476      H2495   0.990       .  S
O2476      H2499   0.990       .  S
O2477      H2491   0.990       .  S
O2477      H2498   0.990       .  S
O2478      C2482   1.290       .  A
O2479      C2482   1.285       .  A
O2480      H2490   0.990       .  S
O2481      H2494   0.990       .  S
Zr2505     O2506   2.442       .  S
Zr2505     O2507   2.521       .  S
Zr2505     O2508   2.426       .  S
Zr2505     O2511   2.394       .  S
Zr2505     O2513   2.374       .  S
Zr2505     O2514   2.390       .  S
Zr2505     O2515   2.440       .  S
Zr2505     O2516   2.435       .  S
O2506      H2562   0.990       .  S
O2506      H2570   0.990       .  S
O2507      C2527   1.294       .  A
O2508      C2529   1.279       .  A
O2509     Zr2519   2.399       .  S
O2509      C2528   1.271       .  A
O2510     Zr2518   2.480       .  S
O2510      C2529   1.290       .  A
O2511      C2528   1.266       .  A
O2512     Zr2520   2.372       .  S
O2512      C2527   1.262       .  A
O2513     Zr2518   2.387       .  S
O2513     Zr2520   2.374       .  S
O2514     Zr2519   2.417       .  S
O2514     Zr2520   2.397       .  S
O2514      H2549   0.966       .  S
O2515     Zr2518   2.394       .  S
O2515     Zr2535   2.472       .  S
O2515      H2552   0.965       .  S
O2516     Zr2519   2.386       .  S
O2516     Zr2535   2.422       .  S
Zr2517     O2542   2.428       .  S
Zr2517     O2536   2.444       .  S
Zr2517     O2544   2.458       .  S
Zr2517     O2532   2.421       .  S
Zr2517     O2523   2.346       .  S
Zr2517     O2524   2.441       .  S
Zr2517     O2525   2.390       .  S
Zr2517     O2526   2.389       .  S
Zr2518     O2537   2.434       .  S
Zr2518     O2530   2.437       .  S
Zr2518     O2531   2.419       .  S
Zr2518     O2524   2.449       .  S
Zr2518     O2525   2.430       .  S
Zr2519     O2521   2.440       .  S
Zr2519     O2543   2.439       .  S
Zr2519     O2545   2.430       .  S
Zr2519     O2523   2.346       .  S
Zr2519     O2526   2.380       .  S
Zr2520     O2546   2.437       .  S
Zr2520     O2547   2.435       .  S
Zr2520     O2522   2.437       .  S
Zr2520     O2523   2.344       .  S
Zr2520     O2524   2.368       .  S
O2521      H2558   0.990       .  S
O2522      H2567   0.990       .  S
O2524      H2550   0.963       .  S
O2525     Zr2535   2.370       .  S
O2526     Zr2535   2.385       .  S
O2526      H2551   0.963       .  S
C2527      C3343   1.456       .  S
C2528      C3339   1.400       .  S
C2529      C3341   1.459       .  S
O2530      H2566   0.991       .  S
O2531      C2533   1.270       .  A
O2532      C2533   1.268       .  A
C2533      C3337   1.425       .  S
O2534     Zr2535   2.436       .  S
O2534      H2563   0.990       .  S
Zr2535     O2538   2.436       .  S
Zr2535     O2539   2.437       .  S
Zr2535     O2540   2.529       .  S
O2536      C2541   1.284       .  A
O2537      H2554   0.990       .  S
O2537      H2569   0.990       .  S
O2538      H2555   0.990       .  S
O2539      H2559   0.990       .  S
O2539      H2568   0.990       .  S
O2540      C2541   1.301       .  A
C2541      C3414   1.479       .  S
O2542      H2561   0.989       .  S
O2542      H2565   0.990       .  S
O2543      H2557   0.990       .  S
O2543      H2564   0.990       .  S
O2544      C2548   1.291       .  A
O2545      C2548   1.282       .  A
O2546      H2556   0.990       .  S
C2548      C3356   1.413       .  S
Zr2571     O2573   2.494       .  S
Zr2571     O2574   2.441       .  S
Zr2571     O2577   2.400       .  S
Zr2571     O2579   2.374       .  S
Zr2571     O2580   2.394       .  S
Zr2571     O2581   2.421       .  S
Zr2571     O2582   2.436       .  S
O2572      H2628   0.990   1_556  S
O2572      H2636   0.990       .  S
O2573      C2593   1.293       .  A
O2574      C2595   1.282       .  A
O2575     Zr2585   2.415       .  S
O2575      C2594   1.273       .  A
O2576     Zr2584   2.469       .  S
O2576      C2595   1.289       .  A
O2577      C2594   1.267       .  A
O2578     Zr2586   2.361       .  S
O2578      C2593   1.267       .  A
O2579     Zr2584   2.390       .  S
O2579     Zr2586   2.382       .  S
O2580     Zr2585   2.433       .  S
O2580     Zr2586   2.379       .  S
O2580      H2615   0.966       .  S
O2581     Zr2584   2.384       .  S
O2581     Zr2601   2.432       .  S
O2581      H2618   0.966       .  S
O2582     Zr2585   2.409       .  S
O2582     Zr2601   2.425       .  S
Zr2583     O2608   2.427       .  S
Zr2583     O2602   2.407       .  S
Zr2583     O2610   2.434       .  S
Zr2583     O2598   2.395       .  S
Zr2583     O2589   2.372       .  S
Zr2583     O2590   2.422       .  S
Zr2583     O2591   2.382       .  S
Zr2583     O2592   2.380       .  S
Zr2584     O2603   2.436       .  S
Zr2584     O2596   2.434       .  S
Zr2584     O2597   2.416       .  S
Zr2584     O2590   2.412       .  S
Zr2584     O2591   2.409       .  S
Zr2585     O2609   2.440       .  S
Zr2585     O2611   2.462       .  S
Zr2585     O2589   2.375       .  S
Zr2585     O2592   2.412       .  S
Zr2586     O2612   2.437       .  S
Zr2586     O2613   2.434       .  S
Zr2586     O2588   2.437       .  S
Zr2586     O2589   2.336       .  S
Zr2586     O2590   2.368       .  S
O2588      H2619   0.990       .  S
O2588      H2633   0.990       .  S
O2590      H2616   0.964       .  S
O2591     Zr2601   2.367       .  S
O2592     Zr2601   2.380       .  S
O2592      H2617   0.965       .  S
C2593      C3333   1.439       .  S
C2595      C3342   1.459       .  S
O2596      H2632   0.990       .  S
O2597      C2599   1.281       .  A
O2598      C2599   1.273       .  A
C2599      C3331   1.398       .  S
O2600      H2629   0.990       .  S
Zr2601     O2606   2.493       .  S
O2602      C2607   1.275       .  A
O2603      H2620   0.990       .  S
O2603      H2635   0.990       .  S
O2604      H2621   0.990       .  S
O2605      H2625   0.990       .  S
O2605      H2634   0.990       .  S
O2606      C2607   1.293       .  A
C2607      C3408   1.461   1_545  S
O2608      H2627   0.985       .  S
O2608      H2631   0.990   1_545  S
O2609      H2623   0.990       .  S
O2609      H2630   0.990       .  S
O2610      C2614   1.271       .  A
O2611      C2614   1.282       .  A
O2612      H2622   0.990       .  S
O2613      H2626   0.990       .  S
C2614      C3374   1.434       .  S
Zr2637     O2638   2.439       .  S
Zr2637     O2639   2.471       .  S
Zr2637     O2640   2.383       .  S
Zr2637     O2643   2.389       .  S
Zr2637     O2645   2.364       .  S
Zr2637     O2646   2.373       .  S
Zr2637     O2647   2.417       .  S
Zr2637     O2648   2.416       .  S
O2638      H2694   0.991       .  S
O2638      H2702   0.990       .  S
O2639      C2659   1.290       .  A
O2640      C2661   1.273       .  A
O2641     Zr2651   2.454       .  S
O2641      C2660   1.287       .  A
O2642     Zr2650   2.452       .  S
O2642      C2661   1.285       .  A
O2643      C2660   1.274       .  A
O2644     Zr2652   2.384       .  S
O2644      C2659   1.273       .  A
O2645     Zr2650   2.378       .  S
O2645     Zr2652   2.386       .  S
O2646     Zr2651   2.379       .  S
O2646     Zr2652   2.364       .  S
O2646      H2681   0.965       .  S
O2647     Zr2650   2.382       .  S
O2647     Zr2667   2.429       .  S
O2647      H2684   0.966       .  S
O2648     Zr2651   2.386       .  S
O2648     Zr2667   2.441       .  S
Zr2649     O2674   2.434       .  S
Zr2649     O2668   2.415       .  S
Zr2649     O2676   2.413       .  S
Zr2649     O2664   2.456       .  S
Zr2649     O2655   2.412       .  S
Zr2649     O2656   2.405       .  S
Zr2649     O2657   2.387       .  S
Zr2649     O2658   2.402       .  S
Zr2650     O2669   2.436   1_655  S
Zr2650     O2662   2.434       .  S
Zr2650     O2663   2.388       .  S
Zr2650     O2656   2.411       .  S
Zr2650     O2657   2.409       .  S
Zr2651     O2653   2.435       .  S
Zr2651     O2675   2.436       .  S
Zr2651     O2677   2.394       .  S
Zr2651     O2655   2.429       .  S
Zr2651     O2658   2.433       .  S
Zr2652     O2678   2.435       .  S
Zr2652     O2679   2.435       .  S
Zr2652     O2654   2.436       .  S
Zr2652     O2655   2.376       .  S
Zr2652     O2656   2.358       .  S
O2653      H2690   0.990       .  S
O2654      H2685   0.990       .  S
O2654      H2699   0.990       .  S
O2656      H2682   0.963       .  S
O2657     Zr2667   2.374       .  S
O2658     Zr2667   2.334       .  S
O2658      H2683   0.964       .  S
C2659      C3329   1.435       .  S
C2660      C3326   1.425       .  S
C2661      C3327   1.428       .  S
O2662      H2698   0.990       .  S
O2663      C2665   1.275       .  A
O2664      C2665   1.286       .  A
C2665      C3324   1.414       .  S
O2666     Zr2667   2.439       .  S
O2666      H2695   0.990       .  S
Zr2667     O2670   2.437       .  S
Zr2667     O2671   2.438       .  S
Zr2667     O2672   2.520       .  S
O2668      C2673   1.277       .  A
O2669      H2686   0.989       .  S
O2669      H2701   0.990       .  S
O2670      H2687   0.990   1_655  S
O2671      H2691   0.990       .  S
O2671      H2700   0.990       .  S
O2672      C2673   1.299       .  A
C2673      C3392   1.471       .  S
O2674      H2693   0.989       .  S
O2674      H2697   0.990       .  S
O2675      H2689   0.990       .  S
O2675      H2696   0.990       .  S
O2676      C2680   1.274       .  A
O2677      C2680   1.265       .  A
O2678      H2688   0.990       .  S
O2679      H2692   0.990       .  S
C2680      C3366   1.419       .  S
Zr2703     O2704   2.442       .  S
Zr2703     O2705   2.498       .  S
Zr2703     O2706   2.439       .  S
Zr2703     O2709   2.394       .  S
Zr2703     O2711   2.371       .  S
Zr2703     O2712   2.375       .  S
Zr2703     O2713   2.418       .  S
Zr2703     O2714   2.424       .  S
O2704      H2760   0.990       .  S
O2704      H2768   0.990       .  S
O2705      C2725   1.296       .  A
O2706      C2727   1.285       .  A
O2707     Zr2717   2.450       .  S
O2707      C2726   1.285       .  A
O2708     Zr2716   2.420       .  S
O2708      C2727   1.279       .  A
O2709      C2726   1.276       .  A
O2710     Zr2718   2.390       .  S
O2710      C2725   1.273       .  A
O2711     Zr2716   2.409       .  S
O2711     Zr2718   2.379       .  S
O2712     Zr2717   2.386       .  S
O2712     Zr2718   2.382       .  S
O2712      H2747   0.965       .  S
O2713     Zr2716   2.393       .  S
O2713     Zr2733   2.417       .  S
O2713      H2750   0.966       .  S
O2714     Zr2717   2.396       .  S
O2714     Zr2733   2.431       .  S
Zr2715     O2740   2.436       .  S
Zr2715     O2734   2.417       .  S
Zr2715     O2742   2.425       .  S
Zr2715     O2730   2.435       .  S
Zr2715     O2721   2.407       .  S
Zr2715     O2722   2.419       .  S
Zr2715     O2723   2.372       .  S
Zr2715     O2724   2.398       .  S
Zr2716     O2735   2.435       .  S
Zr2716     O2728   2.435       .  S
Zr2716     O2729   2.420       .  S
Zr2716     O2722   2.397       .  S
Zr2716     O2723   2.403       .  S
Zr2717     O2719   2.434       .  S
Zr2717     O2741   2.438       .  S
Zr2717     O2743   2.428       .  S
Zr2717     O2721   2.411       .  S
Zr2717     O2724   2.419       .  S
Zr2718     O2744   2.435       .  S
Zr2718     O2745   2.436       .  S
Zr2718     O2720   2.438       .  S
Zr2718     O2721   2.367       .  S
Zr2718     O2722   2.367       .  S
O2719      H2756   0.990       .  S
O2720      H2751   0.990       .  S
O2720      H2765   0.990       .  S
O2722      H2748   0.962       .  S
O2723     Zr2733   2.380       .  S
O2724     Zr2733   2.359       .  S
O2724      H2749   0.966       .  S
C2725      C3320   1.447       .  S
C2726      C3321   1.428       .  S
C2727      C3328   1.433       .  S
O2728      H2764   0.990       .  S
O2729      C2731   1.280       .  A
O2730      C2731   1.283       .  A
C2731      C3317   1.417   1_655  S
O2732     Zr2733   2.440       .  S
O2732      H2761   0.990       .  S
Zr2733     O2736   2.437       .  S
Zr2733     O2737   2.439       .  S
Zr2733     O2738   2.491       .  S
O2734      C2739   1.278       .  A
O2735      H2752   0.990   1_655  S
O2735      H2767   0.990       .  S
O2736      H2753   0.990       .  S
O2737      H2757   0.990       .  S
O2737      H2766   0.990       .  S
O2738      C2739   1.293       .  A
C2739      C3382   1.462       .  S
O2740      H2759   0.990       .  S
O2740      H2763   0.989       .  S
O2741      H2755   0.990       .  S
O2741      H2762   0.990       .  S
O2742      C2746   1.262       .  A
O2743      C2746   1.269       .  A
O2744      H2754   0.990       .  S
O2745      H2758   0.990       .  S
C2746      C3348   1.416       .  S
Zr2769     O2770   2.435       .  S
Zr2769     O2771   2.399       .  S
Zr2769     O2772   2.429       .  S
O2770      H2826   0.990       .  S
O2770      H2834   0.990       .  S
O2771      C2791   1.275       .  A
O2772      C2793   1.285       .  A
O2773     Zr2783   2.398       .  S
O2773      C2792   1.277       .  A
O2774      C2793   1.289       .  A
O2775      C2792   1.285       .  A
O2776     Zr2784   2.501   1_554  S
O2777     Zr2782   2.400       .  S
O2777     Zr2784   2.350       .  S
O2778     Zr2783   2.394       .  S
O2778     Zr2784   2.368       .  S
O2778      H2813   0.966       .  S
O2779     Zr2782   2.411       .  S
O2779     Zr2799   2.388       .  S
O2780     Zr2783   2.405       .  S
O2780     Zr2799   2.365       .  S
Zr2781     O2806   2.439       .  S
Zr2781     O2800   2.451       .  S
Zr2781     O2808   2.395       .  S
Zr2781     O2796   2.383       .  S
Zr2781     O2787   2.406       .  S
Zr2781     O2788   2.413       .  S
Zr2781     O2789   2.371       .  S
Zr2781     O2790   2.366       .  S
Zr2782     O2794   2.437   1_556  S
Zr2782     O2795   2.500       .  S
Zr2782     O2788   2.396       .  S
Zr2782     O2789   2.370       .  S
Zr2783     O2785   2.436       .  S
Zr2783     O2807   2.435       .  S
Zr2783     O2809   2.460       .  S
Zr2783     O2787   2.380       .  S
Zr2783     O2790   2.376       .  S
Zr2784     O2810   2.436       .  S
Zr2784     O2811   2.435       .  S
Zr2784     O2786   2.437       .  S
Zr2784     O2787   2.426       .  S
Zr2784     O2788   2.435       .  S
O2785      H2822   0.990       .  S
O2786      H2817   0.990   1_556  S
O2786      H2831   0.990       .  S
O2788      H2814   0.966       .  S
O2789     Zr2799   2.370       .  S
O2790     Zr2799   2.387       .  S
O2790      H2815   0.966       .  S
C2791      C3344   1.461       .  S
C2792      C3336   1.415       .  S
C2793      C2859   1.472       .  S
O2795      C2797   1.296       .  A
O2796      C2797   1.274       .  A
C2797      C3319   1.447       .  S
O2798     Zr2799   2.434       .  S
O2798      H2827   0.990       .  S
Zr2799     O2802   2.435       .  S
Zr2799     O2803   2.437       .  S
Zr2799     O2804   2.382       .  S
O2800      C2805   1.287       .  A
O2801      H2818   0.990       .  S
O2801      H2833   0.990       .  S
O2802      H2819   0.990       .  S
O2803      H2823   0.990       .  S
O2803      H2832   0.990       .  S
O2804      C2805   1.273       .  A
C2805      C3325   1.423       .  S
O2806      H2825   0.990       .  S
O2806      H2829   0.990       .  S
O2807      H2821   0.990       .  S
O2807      H2828   0.990       .  S
O2808      C2812   1.278       .  A
O2809      C2812   1.286       .  A
O2810      H2820   0.990       .  S
O2811      H2824   0.990       .  S
C2812      C2878   1.470       .  S
Zr2835     O2836   2.437       .  S
Zr2835     O2837   2.396       .  S
Zr2835     O2838   2.441       .  S
Zr2835     O2841   2.427       .  S
Zr2835     O2843   2.370       .  S
Zr2835     O2844   2.390       .  S
Zr2835     O2845   2.397       .  S
Zr2835     O2846   2.387       .  S
O2836      H2892   0.990       .  S
O2836      H2900   0.990       .  S
O2837      C2857   1.275       .  A
O2838      C2859   1.288       .  A
O2839     Zr2849   2.380       .  S
O2839      C2858   1.272       .  A
O2840     Zr2848   2.442       .  S
O2840      C2859   1.286       .  A
O2841      C2858   1.285       .  A
O2842     Zr2850   2.487       .  S
O2842      C2857   1.294       .  A
O2843     Zr2848   2.398       .  S
O2843     Zr2850   2.355       .  S
O2844     Zr2849   2.400       .  S
O2844     Zr2850   2.366       .  S
O2844      H2879   0.966       .  S
O2845     Zr2848   2.411       .  S
O2845     Zr2865   2.395       .  S
O2845      H2882   0.966       .  S
O2846     Zr2849   2.403       .  S
O2846     Zr2865   2.367       .  S
Zr2847     O2872   2.439       .  S
Zr2847     O2866   2.438       .  S
Zr2847     O2874   2.399       .  S
Zr2847     O2862   2.379       .  S
Zr2847     O2853   2.400       .  S
Zr2847     O2854   2.406       .  S
Zr2847     O2855   2.371       .  S
Zr2847     O2856   2.364       .  S
Zr2848     O2867   2.435       .  S
Zr2848     O2860   2.439       .  S
Zr2848     O2861   2.476       .  S
Zr2848     O2854   2.397       .  S
Zr2848     O2855   2.374       .  S
Zr2849     O2851   2.436       .  S
Zr2849     O2873   2.436       .  S
Zr2849     O2875   2.458       .  S
Zr2849     O2853   2.373       .  S
Zr2849     O2856   2.377       .  S
Zr2850     O2876   2.435       .  S
Zr2850     O2877   2.434       .  S
Zr2850     O2852   2.437       .  S
Zr2850     O2853   2.422       .  S
Zr2850     O2854   2.423       .  S
O2851      H2888   0.990       .  S
O2852      H2883   0.990       .  S
O2852      H2897   0.990       .  S
O2854      H2880   0.966       .  S
O2855     Zr2865   2.373       .  S
O2856     Zr2865   2.384       .  S
O2856      H2881   0.966       .  S
C2857      C3334   1.446       .  S
C2858      C3340   1.404       .  S
O2860      H2896   0.989       .  S
O2861      C2863   1.292       .  A
O2862      C2863   1.273       .  A
C2863      C3330   1.435       .  S
O2864     Zr2865   2.436       .  S
O2864      H2893   0.990       .  S
Zr2865     O2868   2.434       .  S
Zr2865     O2869   2.439       .  S
Zr2865     O2870   2.405       .  S
O2866      C2871   1.285       .  A
O2867      H2884   0.990       .  S
O2867      H2899   0.990       .  S
O2868      H2885   0.990       .  S
O2869      H2889   0.990       .  S
O2869      H2898   0.990       .  S
O2870      C2871   1.277       .  A
C2871      C3322   1.428       .  S
O2872      H2891   0.990       .  S
O2872      H2895   0.990       .  S
O2873      H2887   0.990       .  S
O2873      H2894   0.990       .  S
O2874      C2878   1.280       .  A
O2875      C2878   1.285       .  A
O2876      H2886   0.990       .  S
O2877      H2890   0.990       .  S
Zr2901     O2902   2.435   1_545  S
Zr2901     O2903   2.454   1_545  S
Zr2901     O2904   2.383       .  S
Zr2901     O2907   2.450   1_545  S
Zr2901     O2909   2.366       .  S
Zr2901     O2910   2.378       .  S
Zr2901     O2911   2.436       .  S
Zr2901     O2912   2.359       .  S
O2902      H2958   0.991       .  S
O2902      H2966   0.990       .  S
O2903      C2923   1.283   1_565  A
O2904      C2925   1.276       .  A
O2905     Zr2915   2.435   1_565  S
O2905      C2924   1.281       .  A
O2906     Zr2914   2.417       .  S
O2906      C2925   1.280       .  A
O2907      C2924   1.289       .  A
O2908     Zr2916   2.534       .  S
O2908      C2923   1.301       .  A
O2909     Zr2914   2.377       .  S
O2909     Zr2916   2.331       .  S
O2910     Zr2915   2.424       .  S
O2910     Zr2916   2.393       .  S
O2910      H2945   0.966   1_545  S
O2911     Zr2914   2.413       .  S
O2911     Zr2931   2.403       .  S
O2911      H2948   0.966       .  S
O2912     Zr2915   2.367       .  S
O2912     Zr2931   2.363       .  S
Zr2913     O2938   2.437       .  S
Zr2913     O2932   2.487       .  S
Zr2913     O2940   2.473       .  S
Zr2913     O2928   2.390       .  S
Zr2913     O2919   2.417       .  S
Zr2913     O2920   2.441       .  S
Zr2913     O2921   2.369       .  S
Zr2913     O2922   2.370       .  S
Zr2914     O2933   2.437       .  S
Zr2914     O2926   2.435       .  S
Zr2914     O2927   2.456       .  S
Zr2914     O2920   2.402       .  S
Zr2914     O2921   2.362       .  S
Zr2915     O2917   2.439   1_545  S
Zr2915     O2939   2.437   1_545  S
Zr2915     O2941   2.457       .  S
Zr2915     O2919   2.381       .  S
Zr2915     O2922   2.410       .  S
Zr2916     O2942   2.436       .  S
Zr2916     O2943   2.435       .  S
Zr2916     O2918   2.437       .  S
Zr2916     O2919   2.453       .  S
Zr2916     O2920   2.425       .  S
O2917      H2954   0.991       .  S
O2918      H2949   0.990       .  S
O2918      H2963   0.990       .  S
O2920      H2946   0.966       .  S
O2921     Zr2931   2.342       .  S
O2922     Zr2931   2.389       .  S
O2922      H2947   0.963       .  S
C2923      C3372   1.497       .  S
C2924      C3406   1.419       .  S
C2925      C3332   1.397       .  S
O2926      H2962   0.990       .  S
O2927      C2929   1.286       .  A
O2928      C2929   1.276       .  A
C2929      C3312   1.426       .  S
O2930     Zr2931   2.436       .  S
O2930      H2959   0.990       .  S
Zr2931     O2934   2.437       .  S
Zr2931     O2935   2.440       .  S
Zr2931     O2936   2.428       .  S
O2932      C2937   1.294       .  A
O2933      H2950   0.990       .  S
O2933      H2965   0.990       .  S
O2934      H2951   0.990       .  S
O2935      H2955   0.990       .  S
O2935      H2964   0.990       .  S
O2936      C2937   1.281       .  A
C2937      C3315   1.454       .  S
O2938      H2957   0.990       .  S
O2938      H2961   0.990       .  S
O2939      H2953   0.990       .  S
O2939      H2960   0.990       .  S
O2940      C2944   1.291       .  A
O2941      C2944   1.285       .  A
O2942      H2952   0.990       .  S
O2943      H2956   0.990       .  S
C2944      C3313   1.462       .  S
Zr2967     O2968   2.428       .  S
Zr2967     O2969   2.403       .  S
Zr2967     O2970   2.432       .  S
Zr2967     O2973   2.441       .  S
Zr2967     O2975   2.361       .  S
Zr2967     O2976   2.389       .  S
Zr2967     O2977   2.416       .  S
Zr2967     O2978   2.383       .  S
O2968      H3024   0.989       .  S
O2968      H3032   0.990       .  S
O2969      C2989   1.281       .  A
O2970      C2991   1.268       .  A
O2971     Zr2981   2.415       .  S
O2971      C2990   1.273       .  A
O2972     Zr2980   2.431       .  S
O2972      C2991   1.271       .  A
O2973      C2990   1.285       .  A
O2974     Zr2982   2.564       .  S
O2974      C2989   1.310       .  A
O2975     Zr2980   2.401       .  S
O2975     Zr2982   2.309       .  S
O2976     Zr2981   2.410       .  S
O2976     Zr2982   2.375       .  S
O2976      H3011   0.965       .  S
O2977     Zr2980   2.433       .  S
O2977     Zr2997   2.382       .  S
O2977      H3014   0.963       .  S
O2978     Zr2981   2.403       .  S
O2978     Zr2997   2.369       .  S
Zr2979     O3004   2.437       .  S
Zr2979     O2998   2.472       .  S
Zr2979     O3006   2.408       .  S
Zr2979     O2994   2.415       .  S
Zr2979     O2985   2.418       .  S
Zr2979     O2986   2.428       .  S
Zr2979     O2987   2.380       .  S
Zr2979     O2988   2.370       .  S
Zr2980     O2999   2.438       .  S
Zr2980     O2992   2.435       .  S
Zr2980     O2993   2.456       .  S
Zr2980     O2986   2.409       .  S
Zr2980     O2987   2.380       .  S
Zr2981     O2983   2.439       .  S
Zr2981     O3005   2.440   1_545  S
Zr2981     O3007   2.506       .  S
Zr2981     O2985   2.379       .  S
Zr2981     O2988   2.350       .  S
Zr2982     O3008   2.434   1_545  S
Zr2982     O3009   2.435       .  S
Zr2982     O2984   2.436       .  S
Zr2982     O2985   2.445       .  S
Zr2982     O2986   2.455       .  S
O2983      H3020   0.990       .  S
O2984      H3015   0.990       .  S
O2984      H3029   0.990       .  S
O2986      H3012   0.967       .  S
O2987     Zr2997   2.374       .  S
O2988     Zr2997   2.392       .  S
O2988      H3013   0.962       .  S
C2989      C3364   1.484       .  S
C2990      C3393   1.417       .  S
C2991      C3323   1.413       .  S
O2992      H3028   0.990       .  S
O2993      C2995   1.287       .  A
O2994      C2995   1.280       .  A
C2995      C3309   1.441       .  S
O2996     Zr2997   2.436       .  S
O2996      H3025   0.991       .  S
Zr2997     O3000   2.434       .  S
Zr2997     O3001   2.440       .  S
Zr2997     O3002   2.385       .  S
O2998      C3003   1.291       .  A
O2999      H3016   0.990       .  S
O2999      H3031   0.990       .  S
O3000      H3017   0.990       .  S
O3001      H3021   0.990       .  S
O3001      H3030   0.990       .  S
O3002      C3003   1.273       .  A
C3003      C3308   1.426       .  S
O3004      H3023   0.991       .  S
O3004      H3027   0.990       .  S
O3005      H3019   0.990       .  S
O3005      H3026   0.990       .  S
O3006      C3010   1.278       .  A
O3007      C3010   1.296       .  A
O3008      H3018   0.990       .  S
O3009      H3022   0.990       .  S
C3010      C3314   1.460       .  S
Zr3033     O3035   2.361       .  S
Zr3033     O3036   2.434       .  S
Zr3033     O3039   2.452       .  S
Zr3033     O3041   2.404       .  S
Zr3033     O3042   2.402       .  S
Zr3033     O3043   2.426       .  S
Zr3033     O3044   2.394       .  S
O3034      H3090   0.989       .  S
O3034      H3098   0.987       .  S
O3035      C3055   1.269       .  A
O3036      C3057   1.272       .  A
O3037     Zr3047   2.426       .  S
O3037      C3056   1.266       .  A
O3038     Zr3046   2.410       .  S
O3038      C3057   1.267       .  A
O3039      C3056   1.277       .  A
O3040     Zr3048   2.590       .  S
O3040      C3055   1.314       .  A
O3041     Zr3046   2.409       .  S
O3041     Zr3048   2.325       .  S
O3042     Zr3047   2.432       .  S
O3042     Zr3048   2.324       .  S
O3042      H3077   0.966       .  S
O3043     Zr3046   2.428       .  S
O3043     Zr3063   2.363       .  S
O3043      H3080   0.962       .  S
O3044     Zr3047   2.426       .  S
O3044     Zr3063   2.370       .  S
Zr3045     O3070   2.442       .  S
Zr3045     O3064   2.535       .  S
Zr3045     O3072   2.442       .  S
Zr3045     O3060   2.392       .  S
Zr3045     O3052   2.439       .  S
Zr3045     O3053   2.359       .  S
Zr3045     O3054   2.362       .  S
Zr3045     O3051   2.353       .  S
Zr3046     O3065   2.440       .  S
Zr3046     O3058   2.434       .  S
Zr3046     O3059   2.443       .  S
Zr3046     O3052   2.399       .  S
Zr3046     O3053   2.392       .  S
Zr3047     O3049   2.436       .  S
Zr3047     O3071   2.435       .  S
Zr3047     O3073   2.477       .  S
Zr3047     O3054   2.405       .  S
Zr3047     O3051   2.274       .  S
Zr3048     O3074   2.438       .  S
Zr3048     O3075   2.436       .  S
Zr3048     O3050   2.438       .  S
Zr3048     O3052   2.412       .  S
Zr3048     O3051   2.380       .  S
O3049      H3086   0.990       .  S
O3050      H3081   0.990       .  S
O3050      H3095   0.990       .  S
O3052      H3078   0.964       .  S
O3053     Zr3063   2.386       .  S
O3054     Zr3063   2.371       .  S
O3054      H3079   0.963       .  S
C3055      C3353   1.484       .  S
C3057      C3338   1.422       .  S
O3058      H3094   0.990       .  S
O3059      C3061   1.284       .  A
O3060      C3061   1.275       .  A
C3061      C3301   1.412       .  S
O3062      H3091   0.991       .  S
Zr3063     O3066   2.441   1_556  S
Zr3063     O3068   2.378   1_556  S
O3064      C3069   1.303       .  A
O3065      H3082   0.989       .  S
O3065      H3097   0.990       .  S
O3067      H3087   0.989       .  S
O3067      H3096   0.990       .  S
O3068      C3069   1.268   1_554  A
C3069      C3305   1.461   1_556  S
O3070      H3089   0.990       .  S
O3070      H3093   0.991       .  S
O3071      H3085   0.990       .  S
O3071      H3092   0.990       .  S
O3072      C3076   1.284       .  A
O3073      C3076   1.290       .  A
O3074      H3084   0.991       .  S
O3075      H3088   0.990       .  S
C3076      C3303   1.455       .  S
Zr3099     O3100   2.443       .  S
Zr3099     O3101   2.461       .  S
Zr3099     O3102   2.403       .  S
Zr3099     O3105   2.414       .  S
Zr3099     O3107   2.373       .  S
Zr3099     O3108   2.389       .  S
Zr3099     O3109   2.425       .  S
Zr3099     O3110   2.407       .  S
O3100      H3156   0.990       .  S
O3100      H3164   0.991       .  S
O3101      C3121   1.287   1_556  A
O3102      C3123   1.276       .  A
O3103     Zr3113   2.439       .  S
O3103      C3122   1.279       .  A
O3104     Zr3112   2.444       .  S
O3104      C3123   1.284       .  A
O3105      C3122   1.271       .  A
O3106     Zr3114   2.515       .  S
O3107     Zr3112   2.401       .  S
O3108     Zr3113   2.432       .  S
O3108      H3143   0.966       .  S
O3109     Zr3112   2.413       .  S
O3109     Zr3129   2.384       .  S
O3109      H3146   0.963       .  S
O3110     Zr3113   2.392       .  S
O3110     Zr3129   2.369       .  S
Zr3111     O3130   2.474       .  S
Zr3111     O3138   2.443       .  S
Zr3111     O3117   2.412       .  S
Zr3111     O3119   2.370       .  S
Zr3111     O3120   2.373       .  S
Zr3112     O3131   2.442       .  S
Zr3112     O3119   2.378       .  S
Zr3113     O3115   2.441       .  S
Zr3113     O3137   2.440       .  S
Zr3113     O3139   2.474       .  S
Zr3113     O3117   2.390       .  S
Zr3113     O3120   2.403       .  S
Zr3114     O3140   2.435       .  S
Zr3114     O3141   2.436       .  S
Zr3114     O3116   2.438       .  S
Zr3114     O3118   2.428       .  S
O3115      H3152   0.990       .  S
O3116      H3147   0.990       .  S
O3116      H3161   0.990       .  S
O3118      H3144   0.967       .  S
O3119     Zr3129   2.347       .  S
O3120     Zr3129   2.373       .  S
O3120      H3145   0.964       .  S
C3121      C3346   1.494       .  S
C3122      C3385   1.419       .  S
C3123      C3318   1.415       .  S
O3124      H3160   0.990       .  S
O3125      C3127   1.287       .  A
O3126      C3127   1.274       .  A
C3127      C3299   1.427       .  S
O3128     Zr3129   2.435       .  S
O3128      H3157   0.990       .  S
Zr3129     O3132   2.437       .  S
Zr3129     O3133   2.439       .  S
Zr3129     O3134   2.433       .  S
O3130      C3135   1.291       .  A
O3131      H3148   0.990       .  S
O3131      H3163   0.990       .  S
O3132      H3149   0.990       .  S
O3133      H3153   0.990       .  S
O3133      H3162   0.990       .  S
O3134      C3135   1.282       .  A
C3135      C3298   1.457       .  S
O3136      H3155   0.990       .  S
O3136      H3159   0.990       .  S
O3137      H3151   0.990       .  S
O3137      H3158   0.989       .  S
O3138      C3142   1.286       .  A
O3139      C3142   1.290       .  A
O3140      H3150   0.990       .  S
O3141      H3154   0.990       .  S
C3142      C3304   1.455       .  S
Zr3165     O3166   2.443       .  S
Zr3165     O3167   2.453       .  S
Zr3165     O3168   2.382       .  S
Zr3165     O3171   2.362       .  S
Zr3165     O3174   2.379       .  S
Zr3165     O3175   2.402       .  S
Zr3165     O3176   2.415       .  S
Zr3165     O3173   2.246       .  S
O3166      H3222   0.991       .  S
O3166      H3230   0.990       .  S
O3167      C3187   1.286       .  A
O3168      C3189   1.275       .  A
O3169     Zr3179   2.482       .  S
O3169      C3188   1.293       .  A
O3170     Zr3178   2.516       .  S
O3170      C3189   1.296       .  A
O3171      C3188   1.268       .  A
O3172     Zr3180   2.389       .  S
O3172      C3187   1.273       .  A
O3173     Zr3178   2.287       .  S
O3173     Zr3180   2.289       .  S
O3174     Zr3179   2.397       .  S
O3174     Zr3180   2.366       .  S
O3174      H3209   0.966       .  S
O3175     Zr3178   2.388       .  S
O3175     Zr3195   2.414       .  S
O3175      H3212   0.965       .  S
O3176     Zr3179   2.400       .  S
O3176     Zr3195   2.422       .  S
Zr3177     O3202   2.445       .  S
Zr3177     O3196   2.430       .  S
Zr3177     O3204   2.440       .  S
Zr3177     O3192   2.413       .  S
Zr3177     O3183   2.394       .  S
Zr3177     O3184   2.406       .  S
Zr3177     O3185   2.391       .  S
Zr3177     O3186   2.377       .  S
Zr3178     O3197   2.436       .  S
Zr3178     O3190   2.435       .  S
Zr3178     O3191   2.430       .  S
Zr3178     O3184   2.429       .  S
Zr3178     O3185   2.411       .  S
Zr3179     O3181   2.435       .  S
Zr3179     O3203   2.435       .  S
Zr3179     O3205   2.472       .  S
Zr3179     O3183   2.405       .  S
Zr3179     O3186   2.413       .  S
Zr3180     O3206   2.439       .  S
Zr3180     O3207   2.438       .  S
Zr3180     O3182   2.438       .  S
Zr3180     O3183   2.391       .  S
Zr3180     O3184   2.356       .  S
O3181      H3218   0.990       .  S
O3182      H3213   0.990       .  S
O3182      H3227   0.990       .  S
O3184      H3210   0.964       .  S
O3185     Zr3195   2.370       .  S
O3186     Zr3195   2.368       .  S
O3186      H3211   0.966       .  S
C3187      C3311   1.429       .  S
C3188      C3307   1.425       .  S
C3189      C3274   1.499       .  S
O3190      H3226   0.990       .  S
O3191      C3193   1.284       .  A
O3192      C3193   1.281       .  A
C3193      C3302   1.413       .  S
O3194     Zr3195   2.438       .  S
O3194      H3223   0.990       .  S
Zr3195     O3198   2.438       .  S
Zr3195     O3199   2.442       .  S
Zr3195     O3200   2.478       .  S
O3196      C3201   1.282       .  A
O3197      H3214   0.990       .  S
O3197      H3229   0.990       .  S
O3198      H3215   0.990       .  S
O3199      H3219   0.990       .  S
O3199      H3228   0.990       .  S
O3200      C3201   1.290       .  A
C3201      C3297   1.459       .  S
O3202      H3221   0.989       .  S
O3202      H3225   0.990       .  S
O3203      H3217   0.990       .  S
O3203      H3224   0.990       .  S
O3204      C3208   1.291       .  A
O3205      C3208   1.288       .  A
O3206      H3216   0.990       .  S
O3207      H3220   0.990       .  S
C3208      C3255   1.498       .  S
Zr3231     O3233   2.454       .  S
Zr3231     O3237   2.379       .  S
Zr3231     O3240   2.374       .  S
Zr3231     O3241   2.404       .  S
Zr3231     O3242   2.406       .  S
Zr3231     O3239   2.258       .  S
O3232      H3288   0.990       .  S
O3232      H3296   0.990       .  S
O3233      C3253   1.287       .  A
O3234      C3255   1.272       .  A
O3235     Zr3245   2.537       .  S
O3235      C3254   1.305       .  A
O3236      C3255   1.299       .  A
O3237      C3254   1.271       .  A
O3238     Zr3246   2.377       .  S
O3238      C3253   1.272       .  A
O3239     Zr3244   2.287       .  S
O3239     Zr3246   2.290       .  S
O3240     Zr3245   2.390       .  S
O3240     Zr3246   2.371       .  S
O3240      H3275   0.965       .  S
O3241     Zr3244   2.391       .  S
O3241     Zr3261   2.416       .  S
O3241      H3278   0.966       .  S
O3242     Zr3245   2.397       .  S
O3242     Zr3261   2.429       .  S
Zr3243     O3268   2.441       .  S
Zr3243     O3262   2.413       .  S
Zr3243     O3270   2.425       .  S
Zr3243     O3258   2.435       .  S
Zr3243     O3249   2.395       .  S
Zr3243     O3250   2.398       .  S
Zr3243     O3251   2.389       .  S
Zr3243     O3252   2.387       .  S
Zr3244     O3263   2.438       .  S
Zr3244     O3256   2.435       .  S
Zr3244     O3257   2.459       .  S
Zr3244     O3250   2.420       .  S
Zr3244     O3251   2.411       .  S
Zr3245     O3247   2.435       .  S
Zr3245     O3269   2.434       .  S
Zr3245     O3271   2.493       .  S
Zr3245     O3249   2.415       .  S
Zr3245     O3252   2.423       .  S
Zr3246     O3272   2.438       .  S
Zr3246     O3273   2.438       .  S
Zr3246     O3248   2.436       .  S
Zr3246     O3249   2.376       .  S
Zr3246     O3250   2.364       .  S
O3247      H3284   0.990       .  S
O3248      H3279   0.990       .  S
O3248      H3293   0.990       .  S
O3250      H3276   0.965       .  S
O3251     Zr3261   2.370       .  S
O3252     Zr3261   2.366       .  S
O3252      H3277   0.966       .  S
C3253      C3300   1.425       .  S
C3254      C3306   1.462       .  S
O3256      H3292   0.990       .  S
O3257      C3259   1.289       .  A
O3258      C3259   1.286       .  A
C3259      C3310   1.442       .  S
O3260     Zr3261   2.439       .  S
O3260      H3289   0.990       .  S
Zr3261     O3264   2.436       .  S
Zr3261     O3265   2.441       .  S
Zr3261     O3266   2.484       .  S
O3262      C3267   1.278       .  A
O3263      H3280   0.990       .  S
O3263      H3295   0.990       .  S
O3264      H3281   0.990       .  S
O3265      H3285   0.990       .  S
O3265      H3294   0.990       .  S
O3266      C3267   1.293       .  A
C3267      C3316   1.455       .  S
O3268      H3287   0.990       .  S
O3268      H3291   0.990       .  S
O3269      H3283   0.990       .  S
O3269      H3290   0.990       .  S
O3270      C3274   1.288       .  A
O3271      C3274   1.294       .  A
O3272      H3282   0.990       .  S
O3273      H3286   0.990       .  S
C3297      C3298   1.220       .  T
C3299      C3300   1.201       .  T
C3301      C3302   1.193       .  T
C3303      C3304   1.218       .  T
C3307      C3308   1.203       .  T
C3309      C3310   1.210       .  T
C3311      C3312   1.202       .  T
C3313      C3314   1.222       .  T
C3315      C3316   1.218       .  T
C3317      C3318   1.196       .  T
C3319      C3320   1.215       .  T
C3321      C3322   1.202       .  T
C3323      C3324   1.194   1_455  T
C3325      C3326   1.200       .  T
C3327      C3328   1.203       .  T
C3329      C3330   1.207       .  T
C3331      C3332   1.182       .  T
C3333      C3334   1.212       .  T
C3335      C3336   1.194       .  T
C3339      C3340   1.187       .  T
C3341      C3342   1.220       .  T
C3343      C3344   1.221       .  T
C3345      C3346   1.240       .  T
C3347      C3348   1.196       .  T
C3349      C3350   1.220       .  T
C3351      C3352   1.207       .  T
C3353      C3354   1.239       .  T
C3355      C3356   1.195       .  T
C3357      C3358   1.197       .  T
C3359      C3360   1.213       .  T
C3363      C3364   1.236   1_655  T
C3365      C3366   1.195       .  T
C3367      C3368   1.215       .  T
C3369      C3370   1.193       .  T
C3371      C3372   1.244   1_565  T
C3373      C3374   1.207       .  T
C3375      C3376   1.200       .  T
C3377      C3378   1.215       .  T
C3379      C3380   1.226       .  T
C3381      C3382   1.223       .  T
C3383      C3384   1.194       .  T
C3385      C3386   1.197       .  T
C3387      C3388   1.217       .  T
C3389      C3390   1.189       .  T
C3391      C3392   1.228   1_565  T
C3393      C3394   1.195       .  T
C3395      C3396   1.193       .  T
C3397      C3398   1.203       .  T
C3399      C3400   1.214       .  T
C3401      C3402   1.206       .  T
C3403      C3404   1.187       .  T
C3405      C3406   1.196       .  T
C3407      C3408   1.223       .  T
C3409      C3410   1.205       .  T
C3411      C3412   1.194       .  T
C3413      C3414   1.233       .  T
C3417      C3418   1.191       .  T
C3419      C3420   1.199       .  T
C3421      C3422   1.203       .  T
C3423      C3424   1.223       .  T
