geometry optimzed in LAMMPS
_audit_creation_date              2020-11-30 
_audit_creation_method            'lammps2cif' 
_symmetry_space_group_name_H-M    'P1' 
_symmetry_Int_Tables_number       1 
_symmetry_cell_setting            triclinic 
loop_ 
_symmetry_equiv_pos_as_xyz 
  x,y,z 
_cell_length_a                    45.69648378 
_cell_length_b                    17.894213750599228 
_cell_length_c                    41.4628089068275 
_cell_angle_alpha                 89.5505975700944 
_cell_angle_beta                  89.96708938180656 
_cell_angle_gamma                 89.55624383526278 
loop_ 
_atom_site_label 
_atom_site_type_symbol 
_atom_site_fract_x 
_atom_site_fract_y 
_atom_site_fract_z 
_atom_site_charge 
C1          C  0.03877079  0.19976383  0.08912633     0.04800
C2          C  0.05026692  0.20938875  0.05767147    -0.11300
C3          C  0.04381907  0.15801486  0.03326424     0.02300
C4          C  0.02444303  0.09954327  0.03981501    -0.09800
C5          C  0.01237878  0.08891494  0.07063156     0.04800
C6          C  0.02006481  0.13853165  0.09542588    -0.09300
H7          H  0.06610213  0.25282577  0.05289996     0.10400
H8          H  0.01994463  0.05937302  0.02099595     0.07900
H9          H  0.01164765  0.12928578  0.11954744     0.07800
O10         O  0.97538898  0.86054368  0.00610148    -0.76800
C11         C  0.88911627  0.88803290  0.02985148     0.84300
O12         O  0.99418688  0.98637866  0.10272856    -0.77900
O13         O  0.89429117  0.89053723  0.11550915    -0.79400
O14         O  0.93756110  0.66210406  0.06662438    -0.79200
O15         O  0.99360332  0.75110014  0.02406135    -0.77800
Zn16       Zn  0.95312193  0.91040445  0.04199441     1.55700
O17         O  0.90823115  0.71253972  0.10290719    -0.79200
Cd18       Cd  0.97158336  0.74295546  0.06920269     1.59700
Cd19       Cd  0.96796572  0.89544811  0.11692253     1.59600
O20         O  0.99639265  0.71554803  0.11052002    -0.79200
O21         O  0.95425275  0.84329499  0.07792788    -1.89700
Cd22       Cd  0.91389798  0.81749518  0.08568107     1.59900
O23         O  0.98885496  0.81155123  0.14444215    -0.79200
O24         O  0.89216505  0.82488072  0.04348430    -0.77800
C25         C  0.99318307  0.02309753  0.07608655     0.84700
C26         C  0.99113758  0.80203704  0.00217455     0.84400
O27         O  0.91015194  0.93482549  0.02926678    -0.76800
C28         C  0.91458560  0.65903399  0.08434165     0.85200
O29         O  0.97691884  0.00243841  0.05274231    -0.76900
C30         C  0.99848867  0.74537889  0.13851913     0.85300
C31         C  0.90416338  0.93452255  0.13659064     0.85600
O32         O  0.93168717  0.94155955  0.14124867    -0.79300
C33         C  0.78389850  0.42440514  0.01203319     0.04800
C34         C  0.80088907  0.44870365  0.03850554    -0.11300
C35         C  0.83152904  0.45666176  0.03540010     0.02300
C36         C  0.84459533  0.43449693  0.50925302    -0.09800
C37         C  0.82856090  0.41244209  0.48234946     0.04800
C38         C  0.79810439  0.40522177  0.48497062    -0.09300
H39         H  0.79025134  0.46257799  0.06103468     0.10400
H40         H  0.86777250  0.44539964  0.50649422     0.07900
H41         H  0.78548136  0.38998989  0.46392153     0.07800
C42         C  0.01042702  0.69941987  0.16573686     0.04800
C43         C  0.02935395  0.63795635  0.16002579    -0.11300
C44         C  0.03790808  0.58977361  0.18547420     0.02300
C45         C  0.02651187  0.60218257  0.21647298    -0.09800
C46         C  0.00675977  0.66096878  0.22241883     0.04800
C47         C  0.99951065  0.71070934  0.19726206    -0.09300
H48         H  0.03719979  0.62724587  0.13583555     0.10400
H49         H  0.03150325  0.56275250  0.23573897     0.07900
H50         H  0.98338163  0.75421239  0.20163781     0.07800
O51         O  0.07370972  0.35868495  0.24801954    -0.76800
C52         C  0.16265145  0.37117356  0.22211813     0.84300
O53         O  0.05310283  0.48362410  0.15449616    -0.77900
O54         O  0.15265002  0.38851012  0.13618641    -0.79400
O55         O  0.11001802  0.16079247  0.18722807    -0.79200
O56         O  0.05409394  0.25240207  0.22981899    -0.77800
Zn57       Zn  0.09764472  0.40620259  0.21248332     1.55700
O58         O  0.13689004  0.20721692  0.14759701    -0.79200
Cd59       Cd  0.07639339  0.24298102  0.18518799     1.59700
Cd60       Cd  0.07935841  0.39505159  0.13842090     1.59600
O61         O  0.05165425  0.21698736  0.14428097    -0.79200
O62         O  0.09462314  0.34123035  0.17648885    -1.89700
Cd63       Cd  0.13416421  0.31196190  0.16556150     1.59900
O64         O  0.05950586  0.31252890  0.10985535    -0.79200
O65         O  0.15892897  0.31238910  0.20582971    -0.77800
C66         C  0.05662404  0.52254385  0.17999878     0.84700
C67         C  0.05684199  0.30255716  0.25158215     0.84400
O68         O  0.14187520  0.41938264  0.22523034    -0.76800
C69         C  0.13167505  0.15531756  0.16770458     0.85200
O70         O  0.07499849  0.50312433  0.20195676    -0.76900
C71         C  0.04999214  0.24649345  0.11602826     0.85300
C72         C  0.14193279  0.43948565  0.11827670     0.85600
O73         O  0.11428451  0.44773271  0.11514550    -0.79300
C74         C  0.26192594  0.92087854  0.24397245     0.04800
C75         C  0.24531992  0.94618590  0.21719020    -0.11300
C76         C  0.21467100  0.95421657  0.21966375     0.02300
C77         C  0.20129019  0.93677636  0.24903388    -0.09800
C78         C  0.21719666  0.91079519  0.27562583     0.04800
C79         C  0.24755484  0.90201864  0.27288433    -0.09300
H80         H  0.25628033  0.96067952  0.19486381     0.10400
H81         H  0.17832981  0.95040990  0.25224641     0.07900
H82         H  0.26017505  0.88438320  0.29373422     0.07800
C83         C  0.03509424  0.25942720  0.33796824     0.04800
C84         C  0.04617722  0.24893370  0.30646940    -0.11300
C85         C  0.03933713  0.29985752  0.28161335     0.02300
C86         C  0.01982363  0.35902941  0.28778988    -0.09800
C87         C  0.00816896  0.37049485  0.31875085     0.04800
C88         C  0.01630926  0.32108501  0.34390019    -0.09300
H89         H  0.06216801  0.20523516  0.30195252     0.10400
H90         H  0.01514985  0.39927671  0.26874350     0.07900
H91         H  0.00829126  0.33111623  0.36810413     0.07800
O92         O  0.90431517  0.53967759  0.28067924    -0.76800
C93         C  0.98939846  0.65853759  0.25257413     0.84300
O94         O  0.99242091  0.47509124  0.35054440    -0.77900
O95         O  0.99660302  0.74237680  0.36042301    -0.79400
O96         O  0.91053821  0.75276298  0.35728788    -0.79200
O97         O  0.88842265  0.64997456  0.29729388    -0.77800
Zn98       Zn  0.94883277  0.55497313  0.29200984     1.55700
O99         O  0.93817855  0.80145821  0.31887581    -0.79200
Cd100      Cd  0.91274874  0.64945941  0.33802402     1.59700
Cd101      Cd  0.96688590  0.56553128  0.36666400     1.59600
O102        O  0.89355374  0.57402278  0.36718237    -0.79200
O103        O  0.95236293  0.61949882  0.32816924    -1.89700
Cd104      Cd  0.97116112  0.71738339  0.31973465     1.59900
O105        O  0.93120715  0.51672517  0.39065502    -0.79200
O106        O  0.99281411  0.70780585  0.27462037    -0.77800
C107        C  0.98950547  0.43775036  0.32447689     0.84700
C108        C  0.88375274  0.58864440  0.28318485     0.84400
O109        O  0.97214453  0.60310848  0.25602961    -0.76800
C110        C  0.91658183  0.80659652  0.33851307     0.85200
O111        O  0.97178029  0.45872026  0.30215723    -0.76900
C112        C  0.90363675  0.52550123  0.38669045     0.85300
C113        C  0.99792088  0.71310216  0.38875028     0.85600
O114        O  0.98771313  0.64769535  0.39492787    -0.79300
C115        C  0.78667864  0.04577807  0.26796945     0.04800
C116        C  0.80420327  0.02393075  0.29456854    -0.11300
C117        C  0.83467898  0.01341212  0.29075841     0.02300
C118        C  0.84694112  0.02560520  0.26027578    -0.09800
C119        C  0.82994702  0.04638266  0.23376029     0.04800
C120        C  0.79978226  0.05728298  0.23766521    -0.09300
H121        H  0.79401638  0.01376010  0.31776594     0.10400
H122        H  0.86968988  0.01098335  0.25612847     0.07900
H123        H  0.78632441  0.07069513  0.21686337     0.07800
C124        C  0.00951135  0.75937736  0.41578199     0.04800
C125        C  0.02835011  0.82057599  0.40969370    -0.11300
C126        C  0.03642284  0.86942435  0.43474109     0.02300
C127        C  0.02460386  0.85809007  0.46561006    -0.09800
C128        C  0.00497789  0.79993694  0.47193258     0.04800
C129        C  0.99818658  0.74940138  0.44728760    -0.09300
H130        H  0.03649406  0.83057230  0.38553303     0.10400
H131        H  0.02929198  0.89779613  0.48453951     0.07900
H132        H  0.98218355  0.70625538  0.45198278     0.07800
O133        O  0.14048357  0.03676791  0.47304890    -0.76800
C134        C  0.05617526  0.15701118  0.50170321     0.84300
O135        O  0.05194087  0.97509790  0.40322403    -0.77900
O136        O  0.04846132  0.24237025  0.39322978    -0.79400
O137        O  0.13414963  0.25256736  0.39647441    -0.79200
O138        O  0.15561586  0.14746608  0.45580709    -0.77800
Zn139      Zn  0.09588551  0.05180880  0.46163137     1.55700
O140        O  0.10702757  0.29835421  0.43588001    -0.79200
Cd141      Cd  0.13159494  0.14788773  0.41505497     1.59700
Cd142      Cd  0.07775801  0.06447386  0.38756084     1.59600
O143        O  0.15097421  0.07167642  0.38655459    -0.79200
O144        O  0.09220954  0.11794686  0.42564659    -1.89700
Cd145      Cd  0.07372141  0.21640930  0.43421434     1.59900
O146        O  0.11340815  0.01308094  0.36464197    -0.79200
O147        O  0.05249737  0.20694259  0.47959694    -0.77800
C148        C  0.05508298  0.93632864  0.42910609     0.84700
C149        C  0.16049889  0.08654363  0.47065809     0.84400
O150        O  0.07303049  0.10034833  0.49787732    -0.76800
C151        C  0.12879957  0.30390906  0.41653795     0.85200
O152        O  0.07290149  0.95591264  0.45138522    -0.76900
C153        C  0.14094700  0.02131252  0.36842641     0.85300
C154        C  0.04692853  0.21304120  0.36510722     0.85600
O155        O  0.05708323  0.14736676  0.35913336    -0.79300
C156        C  0.25979095  0.53426115  0.49083306     0.04800
C157        C  0.24259334  0.51024837  0.46452235    -0.11300
C158        C  0.21209786  0.50120852  0.46806653     0.02300
C159        C  0.20128997  0.52175168  0.99804053    -0.09800
C160        C  0.21629339  0.55243004  0.02407338     0.04800
C161        C  0.24640255  0.56513806  0.02132362    -0.09300
H162        H  0.25294583  0.49756242  0.44167080     0.10400
H163        H  0.17848186  0.50687890  0.00098723     0.07900
H164        H  0.25834952  0.58711463  0.04167594     0.07800
C165        C  0.50712215  0.70264566  0.08970605     0.04800
C166        C  0.49618542  0.71290033  0.05799557    -0.11300
C167        C  0.50357392  0.66220187  0.03347981     0.02300
C168        C  0.52316778  0.60359924  0.04031365    -0.09800
C169        C  0.53452872  0.59227745  0.07142096     0.04800
C170        C  0.52598235  0.64124468  0.09620842    -0.09300
H171        H  0.48019384  0.75639602  0.05303888     0.10400
H172        H  0.52834505  0.56377415  0.02150139     0.07900
H173        H  0.53398645  0.63150813  0.12053240     0.07800
O174        O  0.63890179  0.43613695  0.03026402    -0.76800
C175        C  0.55785068  0.30500231  0.00470372     0.84300
O176        O  0.55194180  0.48860722  0.10351606    -0.77900
O177        O  0.55316957  0.21847879  0.11269557    -0.79400
O178        O  0.64042118  0.22192730  0.10835300    -0.79200
O179        O  0.65847356  0.33054997  0.04881479    -0.77800
Zn180      Zn  0.59562236  0.41438409  0.04396954     1.55700
O181        O  0.61338146  0.16975718  0.07058838    -0.79200
Cd182      Cd  0.63461829  0.32545811  0.08971659     1.59700
Cd183      Cd  0.57874615  0.39946878  0.11913535     1.59600
O184        O  0.65192887  0.40116636  0.11943705    -0.79200
O185        O  0.59424128  0.34864335  0.08037879    -1.89700
Cd186      Cd  0.57810641  0.24767990  0.07186749     1.59900
O187        O  0.61331437  0.44913673  0.14449756    -0.79200
O188        O  0.55633504  0.25373393  0.02651710    -0.77800
C189        C  0.55395353  0.52646649  0.07723689     0.84700
C190        C  0.66055370  0.39038601  0.03249439     0.84400
O191        O  0.57291673  0.36413987  0.00855517    -0.76800
C192        C  0.63563756  0.16837319  0.08938526     0.85200
O193        O  0.57145831  0.50716161  0.05459508    -0.76900
C194        C  0.64099280  0.44456400  0.14025693     0.85300
C195        C  0.55021713  0.24781263  0.14069813     0.85600
O196        O  0.55871872  0.31454944  0.14679576    -0.79300
C197        C  0.76538997  0.92965313  0.01574810     0.04800
C198        C  0.74984580  0.95816411  0.04253304    -0.11300
C199        C  0.71919592  0.96630827  0.04123171     0.02300
C200        C  0.69806139  0.92825408  0.51601284    -0.09800
C201        C  0.71362607  0.90276985  0.48927651     0.04800
C202        C  0.74395867  0.89240932  0.49164055    -0.09300
H203        H  0.76149218  0.97508018  0.06398228     0.10400
H204        H  0.67506789  0.94196632  0.51305629     0.07900
H205        H  0.75621589  0.87523583  0.47053480     0.07800
C206        C  0.53844683  0.20064385  0.16754708     0.04800
C207        C  0.54902641  0.21030637  0.19933076    -0.11300
C208        C  0.54157737  0.15965632  0.22406538     0.02300
C209        C  0.52213179  0.10149379  0.21728144    -0.09800
C210        C  0.51099013  0.09086962  0.18605461     0.04800
C211        C  0.51972354  0.13987605  0.16111661    -0.09300
H212        H  0.56488257  0.25347133  0.20424536     0.16800
H213        H  0.51687029  0.06161514  0.23622243     0.07900
H214        H  0.51197515  0.13073888  0.13679577     0.07800
O215        O  0.40662325  0.93475924  0.22655456    -0.76800
C216        C  0.48865991  0.80513645  0.25240446     0.84300
O217        O  0.49386215  0.98826508  0.15405403    -0.77900
O218        O  0.49326236  0.72002005  0.14470178    -0.79400
O219        O  0.40542976  0.71808695  0.15044260    -0.79200
O220        O  0.38698520  0.83144393  0.20692950    -0.77800
Zn221      Zn  0.44981989  0.91374545  0.21279640     1.55700
O222        O  0.43446654  0.66762891  0.18753573    -0.79200
Cd223      Cd  0.41110214  0.82379690  0.16646003     1.59700
Cd224      Cd  0.46687443  0.90093226  0.13827723     1.59600
O225        O  0.39348230  0.89895913  0.13541059    -0.79200
O226        O  0.45123134  0.84823197  0.17662865    -1.89700
Cd227      Cd  0.46851047  0.74787548  0.18568878     1.59900
O228        O  0.43221989  0.95333229  0.11341413    -0.79200
O229        O  0.49072071  0.75430740  0.23076225    -0.77800
C230        C  0.49156474  0.02582998  0.18016039     0.84700
C231        C  0.38506733  0.88981001  0.22390581     0.84400
O232        O  0.47283527  0.86360015  0.24841538    -0.76800
C233        C  0.41193834  0.66421770  0.16919066     0.85200
O234        O  0.47367150  0.00691420  0.20250046    -0.76900
C235        C  0.40450213  0.94633533  0.11613594     0.85300
C236        C  0.49556478  0.74967436  0.11651190     0.85600
O237        O  0.48663737  0.81653734  0.11028775    -0.79300
C238        C  0.28658960  0.40799097  0.24071678     0.04800
C239        C  0.30138522  0.38936153  0.26947984    -0.11300
C240        C  0.33148560  0.40252022  0.27242415     0.02300
C241        C  0.34674270  0.43154005  0.24604232    -0.09800
C242        C  0.33289027  0.44965726  0.21697971     0.04800
C243        C  0.30247783  0.43803165  0.21439937    -0.09300
H244        H  0.28916516  0.36884609  0.29009306     0.10400
H245        H  0.36935242  0.44760935  0.24933342     0.07900
H246        H  0.29109827  0.45360412  0.19242193     0.07800
C247        C  0.53743878  0.26096277  0.41885184     0.04800
C248        C  0.51870766  0.32266561  0.41237149    -0.11300
C249        C  0.51052549  0.37230424  0.43707616     0.02300
C250        C  0.52204484  0.36136682  0.46811165    -0.09800
C251        C  0.54162481  0.30266347  0.47497005     0.04800
C252        C  0.54867598  0.25129738  0.45051116    -0.09300
H253        H  0.51054216  0.33212228  0.38817006     0.10400
H254        H  0.51703561  0.40158149  0.48680120     0.07900
H255        H  0.56464030  0.20753276  0.45545912     0.07800
O256        O  0.47002211  0.60148614  0.49921285    -0.76800
C257        C  0.38321297  0.57338812  0.47090243     0.84300
O258        O  0.49392298  0.47637733  0.40487559    -0.77900
O259        O  0.39377197  0.57016453  0.38424257    -0.79400
O260        O  0.43549895  0.79731700  0.43741573    -0.79200
O261        O  0.49002500  0.70733941  0.48038562    -0.77800
Zn262      Zn  0.44864072  0.55097257  0.46268072     1.55700
O263        O  0.40577077  0.75176966  0.40038929    -0.79200
Cd264      Cd  0.46890518  0.71535034  0.43506206     1.59700
Cd265      Cd  0.46699802  0.56416491  0.38857913     1.59600
O266        O  0.49423810  0.74261915  0.39430815    -0.79200
O267        O  0.45086019  0.61701991  0.42638500    -1.89700
Cd268      Cd  0.41085232  0.64419842  0.41548904     1.59900
O269        O  0.48717039  0.64743177  0.36013786    -0.79200
O270        O  0.38553858  0.63406376  0.45518956    -0.77800
C271        C  0.49132713  0.43845787  0.43103299     0.84700
C272        C  0.48637947  0.65848854  0.50283745     0.84400
O273        O  0.40499607  0.52832789  0.47397166    -0.76800
C274        C  0.41272289  0.80351354  0.41960152     0.85200
O275        O  0.47331807  0.45784628  0.45318507    -0.76900
C276        C  0.49657155  0.71337855  0.36622367     0.85300
C277        C  0.40491862  0.51939964  0.36683458     0.85600
O278        O  0.43264269  0.51081123  0.36473802    -0.79300
C279        C  0.28515127  0.05817663  0.49030389     0.04800
C280        C  0.30273014  0.03055596  0.46488743    -0.11300
C281        C  0.33308183  0.01925359  0.46928978     0.02300
C282        C  0.34972278  0.04685715  0.99081992    -0.09800
C283        C  0.33350635  0.06964047  0.01757638     0.04800
C284        C  0.30324962  0.08049810  0.01452858    -0.09300
H285        H  0.29264090  0.01579773  0.44219537     0.10400
H286        H  0.37260866  0.03265289  0.99427040     0.07900
H287        H  0.29050760  0.09512576  0.03564553     0.07800
C288        C  0.50868429  0.75991500  0.33933637     0.04800
C289        C  0.49824798  0.75004184  0.30753313    -0.11300
C290        C  0.50570310  0.80071027  0.28282690     0.02300
C291        C  0.52519780  0.85891116  0.28959057    -0.09800
C292        C  0.53616902  0.86986665  0.32085379     0.04800
C293        C  0.52736676  0.82081251  0.34577069    -0.09300
H294        H  0.48230575  0.70709867  0.30262762     0.10400
H295        H  0.53038234  0.89900033  0.27069850     0.07900
H296        H  0.53489613  0.83034079  0.37015122     0.07800
O297        O  0.57489307  0.09970786  0.25912575    -0.76800
C298        C  0.66265016  0.08144884  0.28863217     0.84300
O299        O  0.55130362  0.97430396  0.35284857    -0.77900
O300        O  0.64981996  0.07056847  0.37521273    -0.79400
O301        O  0.60900036  0.29592427  0.32052467    -0.79200
O302        O  0.55418712  0.20589954  0.27686057    -0.77800
Zn303      Zn  0.59725469  0.05049128  0.29585954     1.55700
O304        O  0.63506820  0.24975561  0.36101533    -0.79200
Cd305      Cd  0.57532660  0.21485495  0.32243875     1.59700
Cd306      Cd  0.57731535  0.06215353  0.36981194     1.59600
O307        O  0.55056349  0.24267898  0.36358767    -0.79200
O308        O  0.59326780  0.11564814  0.33186872    -1.89700
Cd309      Cd  0.63236022  0.14443695  0.34398902     1.59900
O310        O  0.55746455  0.14638926  0.39806607    -0.79200
O311        O  0.65871610  0.14003394  0.30508639    -0.77800
C312        C  0.55496873  0.93607712  0.32708341     0.84700
C313        C  0.55802041  0.15630364  0.25493623     0.84400
O314        O  0.64187952  0.03435107  0.28475214    -0.76800
C315        C  0.63021219  0.30124671  0.34056041     0.85200
O316        O  0.57366006  0.95523589  0.30549304    -0.76900
C317        C  0.54856508  0.21335016  0.39189688     0.85300
C318        C  0.63931330  0.01988732  0.39314666     0.85600
O319        O  0.61173141  0.00937129  0.39486704    -0.79300
C320        C  0.75900989  0.54723272  0.27008241     0.04800
C321        C  0.74438532  0.56467484  0.24110599    -0.11300
C322        C  0.71418917  0.55351788  0.23828247     0.02300
C323        C  0.69848077  0.52805667  0.26492466    -0.09800
C324        C  0.71223062  0.50932604  0.29399847     0.04800
C325        C  0.74283193  0.51871619  0.29653886    -0.09300
H326        H  0.75678516  0.58256208  0.22016704     0.10400
H327        H  0.67560878  0.51430342  0.26171253     0.07900
H328        H  0.75403275  0.50286287  0.31860224     0.07800
C329        C  0.64374742  0.43575621  0.33181502     0.25300
C330        C  0.65206490  0.36132208  0.33743363    -0.22800
C331        C  0.68205027  0.34206184  0.33686731     0.20200
C332        C  0.70292615  0.39404403  0.32677418     0.25200
C333        C  0.69424811  0.46675490  0.31775807    -0.22800
C334        C  0.66482516  0.48868231  0.32310729     0.20100
F335        F  0.65596220  0.55969264  0.31629282    -0.12700
F336        F  0.61512589  0.45637818  0.33324675    -0.15100
F337        F  0.73088049  0.37030794  0.32205742    -0.15100
F338        F  0.69085028  0.27047868  0.34255641    -0.12700
C339        C  0.34175161  0.90563623  0.43535514     0.25300
C340        C  0.35167878  0.97485610  0.44670111    -0.22800
C341        C  0.38166587  0.99213324  0.44298488     0.20200
C342        C  0.40169818  0.93776177  0.43259429     0.25200
C343        C  0.39196157  0.86654720  0.42397557    -0.22800
C344        C  0.36163063  0.85253880  0.42369015     0.20100
F345        F  0.35134709  0.78422923  0.41551495    -0.12700
F346        F  0.31333977  0.88554112  0.43889152    -0.15100
F347        F  0.43070978  0.95359672  0.43239474    -0.15100
F348        F  0.39194539  0.05982234  0.45204732    -0.12700
C349        C  0.37627609  0.38161118  0.30570189     0.25300
C350        C  0.34668863  0.40417139  0.30395825    -0.22800
C351        C  0.33533164  0.45000057  0.32832190     0.20200
C352        C  0.35408996  0.48256094  0.35058561     0.25200
C353        C  0.38469011  0.47106491  0.34844134    -0.22800
C354        C  0.39530051  0.41592264  0.32732712     0.20100
F355        F  0.42427395  0.39891903  0.32586025    -0.12700
F356        F  0.38745817  0.33361951  0.28357459    -0.15100
F357        F  0.34226583  0.52996917  0.37254477    -0.15100
F358        F  0.30675096  0.47133314  0.32818122    -0.12700
C359        C  0.35454147  0.97051504  0.09320440     0.25300
C360        C  0.38415333  0.99173858  0.09597926    -0.22800
C361        C  0.39399696  0.05366676  0.07797078     0.20200
C362        C  0.37569785  0.08745914  0.05496410     0.25200
C363        C  0.34745665  0.05943761  0.04946276    -0.22800
C364        C  0.33648274  0.00385334  0.07013117     0.20100
F365        F  0.30944616  0.97486784  0.06539975    -0.12700
F366        F  0.34346308  0.91292358  0.11077892    -0.15100
F367        F  0.38643006  0.14295793  0.03593524    -0.15100
F368        F  0.42170541  0.07922054  0.08140385    -0.12700
C369        C  0.36059968  0.61748255  0.17202776     0.25300
C370        C  0.39093603  0.60181034  0.17216527    -0.22800
C371        C  0.40041148  0.52862717  0.17880674     0.20200
C372        C  0.38020879  0.47408196  0.18814291     0.25200
C373        C  0.35043556  0.49313318  0.19306574    -0.22800
C374        C  0.34057011  0.56395917  0.18276801     0.20100
F375        F  0.31216934  0.58477155  0.18670825    -0.12700
F376        F  0.35049614  0.68732270  0.16502412    -0.15100
F377        F  0.39022474  0.40452778  0.19584182    -0.15100
F378        F  0.42933564  0.51088675  0.17785298    -0.12700
C379        C  0.70909558  0.96184014  0.43553434     0.25300
C380        C  0.69872651  0.90887105  0.45776357    -0.22800
C381        C  0.67011165  0.88140911  0.45425877     0.20200
C382        C  0.65086435  0.91448024  0.43201975     0.25200
C383        C  0.66022518  0.97462403  0.41262140    -0.22800
C384        C  0.69014743  0.99425180  0.41316201     0.20100
F385        F  0.70088714  0.04950155  0.39397728    -0.12700
F386        F  0.73653335  0.98984611  0.43812000    -0.15100
F387        F  0.62276286  0.89057004  0.43094472    -0.15100
F388        F  0.65996993  0.82798365  0.47474899    -0.12700
C389        C  0.69142024  0.46563709  0.16171318     0.25300
C390        C  0.66160908  0.48729344  0.16047523    -0.22800
C391        C  0.65196166  0.54632212  0.18010624     0.20200
C392        C  0.67089335  0.57715864  0.20284720     0.25200
C393        C  0.69949583  0.54846755  0.20667039    -0.22800
C394        C  0.71006068  0.49574493  0.18462989     0.20100
F395        F  0.73732165  0.46583282  0.18789663    -0.12700
F396        F  0.70218517  0.41010582  0.14284503    -0.15100
F397        F  0.66044652  0.62968469  0.22342414    -0.15100
F398        F  0.62389044  0.57150027  0.17857365    -0.12700
C399        C  0.67362858  0.98389969  0.07376431     0.25300
C400        C  0.70189773  0.00887708  0.06532795    -0.22800
C401        C  0.70933228  0.08334682  0.07163136     0.20200
C402        C  0.68794585  0.13372972  0.08222091     0.25200
C403        C  0.65868402  0.11079439  0.08606467    -0.22800
C404        C  0.65195112  0.03494466  0.08322962     0.20100
F405        F  0.62416825  0.01101559  0.08806962    -0.12700
F406        F  0.66621628  0.91137173  0.06928589    -0.15100
F407        F  0.69519430  0.20686866  0.08510838    -0.15100
F408        F  0.73218453  0.08594088  0.57081807    -0.12700
C409        C  0.31191439  0.48997615  0.98572384     0.25300
C410        C  0.29219165  0.54050160  0.48836021    -0.22800
C411        C  0.30625854  0.60511027  0.49945458     0.20200
C412        C  0.33656943  0.61240392  0.49664121     0.25200
C413        C  0.35362890  0.55530314  0.48280786    -0.22800
C414        C  0.33987447  0.48924612  0.47299399     0.20100
F415        F  0.35898132  0.43873038  0.97459839    -0.12700
F416        F  0.30018173  0.42117884  0.98178456    -0.15100
F417        F  0.34918165  0.67732062  0.50586020    -0.15100
F418        F  0.29047239  0.66319640  0.51145645    -0.12700
C419        C  0.18077365  0.34453139  0.41966017     0.25300
C420        C  0.15074461  0.36353305  0.42053773    -0.22800
C421        C  0.14252440  0.43600304  0.42957098     0.20200
C422        C  0.16369598  0.48630531  0.44024033     0.25200
C423        C  0.19322220  0.46334758  0.44393121    -0.22800
C424        C  0.20176591  0.39355144  0.43164024     0.20100
F425        F  0.23449397  0.35813969  0.94743414    -0.12700
F426        F  0.18960915  0.27501920  0.41077463    -0.15100
F427        F  0.15488872  0.55507205  0.45016290    -0.15100
F428        F  0.11388467  0.45676065  0.42969700    -0.12700
C429        C  0.20744066  0.13479356  0.49273087     0.25300
C430        C  0.19095717  0.07369395  0.48181235    -0.22800
C431        C  0.20563688  0.00649760  0.47461088     0.20200
C432        C  0.23623804  0.00138755  0.47722541     0.25200
C433        C  0.25272264  0.06328025  0.48724359    -0.22800
C434        C  0.24106862  0.13025670  0.99487248     0.20100
F435        F  0.25578597  0.19232745  0.00392833    -0.12700
F436        F  0.19653781  0.19630654  0.00317578    -0.15100
F437        F  0.24978678  0.93600291  0.46974108    -0.15100
F438        F  0.19063406  0.94750467  0.46282735    -0.12700
C439        C  0.74081623  0.12242964  0.26564108     0.25300
C440        C  0.75442911  0.05291021  0.27093746    -0.22800
C441        C  0.73700304  0.99027513  0.27786533     0.20200
C442        C  0.70645267  0.99772879  0.28064127     0.25200
C443        C  0.69292309  0.06818420  0.27686589    -0.22800
C444        C  0.71047095  0.13014877  0.26873545     0.20100
F445        F  0.69831011  0.19922716  0.26510855    -0.12700
F446        F  0.75711981  0.18370759  0.25882830    -0.15100
F447        F  0.69041928  0.93722530  0.28925215    -0.15100
F448        F  0.74965015  0.92207793  0.28231621    -0.12700
C449        C  0.86555679  0.85722647  0.34117165     0.25300
C450        C  0.89574343  0.87027626  0.33671900    -0.22800
C451        C  0.90470948  0.94106066  0.32617020     0.20200
C452        C  0.88386642  0.99459310  0.31670721     0.25200
C453        C  0.85383706  0.97605777  0.31530813    -0.22800
C454        C  0.84478613  0.90909990  0.33006061     0.20100
F455        F  0.81619491  0.88911298  0.33010734    -0.12700
F456        F  0.85591854  0.79046584  0.35261979    -0.15100
F457        F  0.89328417  0.06150610  0.30520044    -0.15100
F458        F  0.93360231  0.95677877  0.32309858    -0.12700
C459        C  0.84048092  0.50307568  0.27880588     0.25300
C460        C  0.85301184  0.57378075  0.27345531    -0.22800
C461        C  0.83433835  0.63442383  0.26559520     0.20200
C462        C  0.80396707  0.62538038  0.26450501     0.25200
C463        C  0.79136919  0.55571451  0.27144850    -0.22800
C464        C  0.80992106  0.49424608  0.27798963     0.20100
F465        F  0.79843111  0.42568939  0.28373673    -0.12700
F466        F  0.85762055  0.44355189  0.28689788    -0.15100
F467        F  0.78669676  0.68571044  0.25792941    -0.15100
F468        F  0.84545298  0.70357406  0.26013072    -0.12700
C469        C  0.31097395  0.97885796  0.23240038     0.25300
C470        C  0.29439115  0.91700034  0.24269358    -0.22800
C471        C  0.30907714  0.85126495  0.25238975     0.20200
C472        C  0.33948043  0.84575331  0.24985719     0.25200
C473        C  0.35591944  0.90575348  0.23757140    -0.22800
C474        C  0.34154548  0.97329225  0.22991886     0.20100
F475        F  0.35674872  0.03151608  0.21731334    -0.12700
F476        F  0.29752794  0.04411514  0.22406733    -0.15100
F477        F  0.35277347  0.77965223  0.25726486    -0.15100
F478        F  0.29382734  0.79049701  0.26239147    -0.12700
C479        C  0.15296911  0.91733118  0.32991928     0.25300
C480        C  0.16227942  0.97357673  0.35099623    -0.22800
C481        C  0.19261179  0.98736283  0.35371931     0.20200
C482        C  0.21221378  0.95650287  0.33171577     0.25200
C483        C  0.20192804  0.91022490  0.30709956    -0.22800
C484        C  0.17288720  0.88453068  0.30864134     0.20100
F485        F  0.16295186  0.83524407  0.28650915    -0.12700
F486        F  0.12435834  0.89795092  0.32808384    -0.15100
F487        F  0.24037522  0.98014823  0.33203154    -0.15100
F488        F  0.20326241  0.03584706  0.37577602    -0.12700
C489        C  0.17156211  0.57642374  0.05674539     0.25300
C490        C  0.20100223  0.55286322  0.05549070    -0.22800
C491        C  0.21208318  0.50772855  0.08054886     0.20200
C492        C  0.19304278  0.47592122  0.10292247     0.25200
C493        C  0.16252091  0.48805275  0.10028151    -0.22800
C494        C  0.15228552  0.54329991  0.07864647     0.20100
F495        F  0.12340570  0.56118311  0.07685485    -0.12700
F496        F  0.16075688  0.62401568  0.03393953    -0.15100
F497        F  0.20447685  0.42822675  0.12532948    -0.15100
F498        F  0.24061443  0.48591306  0.08093335    -0.12700
C499        C  0.14543336  0.02215946  0.18040844     0.25300
C500        C  0.15361158  0.09465786  0.17140188    -0.22800
C501        C  0.18363109  0.11242307  0.17020333     0.20200
C502        C  0.20464989  0.06243352  0.18233278     0.25200
C503        C  0.19610105  0.99280460  0.19495162    -0.22800
C504        C  0.16665531  0.97070152  0.19095559     0.20100
F505        F  0.15793268  0.90167197  0.20064726    -0.12700
F506        F  0.11680046  0.00246578  0.18067735    -0.15100
F507        F  0.23265842  0.08616666  0.18523539    -0.15100
F508        F  0.19243886  0.18165200  0.16091077    -0.12700
C509        C  0.21095856  0.32215633  0.24156253     0.25300
C510        C  0.19279061  0.38412613  0.23412911    -0.22800
C511        C  0.20562991  0.45505885  0.23112516     0.20200
C512        C  0.23611639  0.46298012  0.23349723     0.25200
C513        C  0.25425523  0.40032368  0.23924081    -0.22800
C514        C  0.24129490  0.33029333  0.24423016     0.20100
F515        F  0.25819311  0.26889428  0.25006539    -0.12700
F516        F  0.19944202  0.25270936  0.24475429    -0.15100
F517        F  0.24800700  0.53177870  0.22971441    -0.15100
F518        F  0.18897846  0.51579518  0.22349655    -0.12700
C519        C  0.73715970  0.35429308  0.00391856     0.25300
C520        C  0.75141634  0.41959456  0.01389779    -0.22800
C521        C  0.73433904  0.48042114  0.02463976     0.20200
C522        C  0.70379099  0.47426558  0.02722904     0.25200
C523        C  0.68987021  0.40705581  0.01930491    -0.22800
C524        C  0.70678254  0.34808813  0.00666847     0.20100
F525        F  0.69397178  0.28247035  0.99876239    -0.12700
F526        F  0.75281769  0.29464575  0.99318412    -0.15100
F527        F  0.68816299  0.53169965  0.03999154    -0.15100
F528        F  0.74727324  0.54542395  0.03310302    -0.12700
C529        C  0.87201825  0.38856082  0.44729191     0.25300
C530        C  0.84347366  0.41770975  0.45074932    -0.22800
C531        C  0.83328141  0.47088312  0.42828588     0.20200
C532        C  0.85241409  0.50195304  0.40583680     0.25200
C533        C  0.88231925  0.48101444  0.40563625    -0.22800
C534        C  0.89143501  0.42054550  0.42515783     0.20100
F535        F  0.91949846  0.39519516  0.42427499    -0.12700
F536        F  0.88199881  0.33466262  0.46783287    -0.15100
F537        F  0.84194698  0.55737340  0.38634887    -0.15100
F538        F  0.80586949  0.50023748  0.43064553    -0.12700
C539        C  0.83468451  0.97882384  0.18237061     0.25300
C540        C  0.84373774  0.03801783  0.20181461    -0.22800
C541        C  0.87103678  0.07138359  0.19584852     0.20200
C542        C  0.89044406  0.04007175  0.17353100     0.25200
C543        C  0.88260006  0.97556253  0.15655046    -0.22800
C544        C  0.85387352  0.94781981  0.15994401     0.20100
F545        F  0.84506066  0.88614065  0.14383045    -0.12700
F546        F  0.80871355  0.94459860  0.18794196    -0.15100
F547        F  0.91732357  0.07071025  0.16972844    -0.15100
F548        F  0.87999551  0.12961904  0.21407707    -0.12700
C549        C  0.84168780  0.56575832  0.07122049     0.25300
C550        C  0.85036951  0.49569941  0.05933380    -0.22800
C551        C  0.88006378  0.47388710  0.06285023     0.20200
C552        C  0.90119928  0.52564072  0.07235891     0.25200
C553        C  0.89280786  0.59847322  0.08072042    -0.22800
C554        C  0.86263802  0.61621289  0.08219026     0.20100
F555        F  0.85345495  0.68558997  0.09085074    -0.12700
F556        F  0.81443948  0.60039788  0.55807187    -0.15100
F557        F  0.92991197  0.50563601  0.07188555    -0.15100
F558        F  0.88902256  0.40459594  0.05378128    -0.12700
C559        C  0.84201291  0.85026945  0.00565470     0.25300
C560        C  0.85945037  0.90724711  0.01841186    -0.22800
C561        C  0.84605649  0.97445438  0.02802413     0.20200
C562        C  0.81551617  0.98261053  0.02670658     0.25200
C563        C  0.79790113  0.92346374  0.01587601    -0.22800
C564        C  0.81162935  0.85793732  0.00464186     0.20100
F565        F  0.79555708  0.79906209  0.99454346    -0.12700
F566        F  0.85436409  0.78477308  0.99609891    -0.15100
F567        F  0.79559515  0.03386078  0.53703819    -0.15100
F568        F  0.86223961  0.02968670  0.04124060    -0.12700
C569        C  0.03597926  0.19766150  0.58893380     0.04800
C570        C  0.04692019  0.20867883  0.55728462    -0.11300
C571        C  0.03936875  0.15979797  0.53226636     0.02300
C572        C  0.01950969  0.10212806  0.53851319    -0.09800
C573        C  0.00818917  0.08968580  0.56956654     0.04800
C574        C  0.01691785  0.13699965  0.59485612    -0.09300
H575        H  0.06308338  0.25140940  0.55267521     0.10400
H576        H  0.01430355  0.06346348  0.51933907     0.07900
H577        H  0.00903391  0.12632116  0.61908960     0.07800
O578        O  0.97123785  0.86006646  0.50603100    -0.76800
C579        C  0.88362481  0.87902992  0.53350077     0.84300
O580        O  0.99192764  0.98494513  0.60120508    -0.77900
O581        O  0.89347177  0.88495552  0.61933110    -0.79400
O582        O  0.93602294  0.66179199  0.56682796    -0.79200
O583        O  0.99113407  0.75259538  0.52420689    -0.77800
Zn584      Zn  0.94848650  0.90888682  0.54230599     1.55700
O585        O  0.90916465  0.70788713  0.60634637    -0.79200
Cd586      Cd  0.96963690  0.74293829  0.56926373     1.59700
Cd587      Cd  0.96648394  0.89451873  0.61668690     1.59600
O588        O  0.99490998  0.71506921  0.60997868    -0.79200
O589        O  0.95171072  0.84225111  0.57830254    -1.89700
Cd590      Cd  0.91225871  0.81306087  0.58868488     1.59900
O591        O  0.98789079  0.81107704  0.64395478    -0.79200
O592        O  0.88792632  0.81770463  0.54824257    -0.77800
C593        C  0.98931710  0.02321099  0.57511184     0.84700
C594        C  0.98788118  0.80296864  0.50224326     0.84400
O595        O  0.90414964  0.92729624  0.53094708    -0.76800
C596        C  0.91419951  0.65689882  0.58609393     0.85200
O597        O  0.97182593  0.00354876  0.55258075    -0.76900
C598        C  0.99735733  0.74482305  0.63792040     0.85300
C599        C  0.90366443  0.93168572  0.63905458     0.85600
O600        O  0.93118710  0.94172694  0.64206192    -0.79300
C601        C  0.78364351  0.42368806  0.51384337     0.04800
C602        C  0.80020154  0.44893036  0.54033427    -0.11300
C603        C  0.83084139  0.45487741  0.53795882     0.02300
C604        C  0.84450600  0.43966466  0.00582781    -0.09800
C605        C  0.82813883  0.41636190  0.97945726     0.04800
C606        C  0.79787562  0.40791803  0.98269128    -0.09300
H607        H  0.78927062  0.46598632  0.56229044     0.10400
H608        H  0.86740202  0.45251224  0.00209653     0.07900
H609        H  0.78500452  0.39272465  0.96181768     0.07800
C610        C  0.00939540  0.69853269  0.66494686     0.04800
C611        C  0.02779523  0.63611447  0.65894145    -0.11300
C612        C  0.03626916  0.58749896  0.68426265     0.02300
C613        C  0.02527446  0.60043893  0.71537091    -0.09800
C614        C  0.00603533  0.66012224  0.72160790     0.04800
C615        C  0.99891250  0.71033540  0.69661183    -0.09300
H616        H  0.03533004  0.62512125  0.63465613     0.10400
H617        H  0.03020972  0.56081328  0.73458176     0.07900
H618        H  0.98311384  0.75449358  0.70121022     0.07800
O619        O  0.07466120  0.35752386  0.74840707    -0.76800
C620        C  0.16145146  0.37439945  0.72033450     0.84300
O621        O  0.05171210  0.48130311  0.65320382    -0.77900
O622        O  0.15104045  0.38122615  0.63718377    -0.79400
O623        O  0.10759991  0.15601457  0.68800061    -0.79200
O624        O  0.05357269  0.25191569  0.73122544    -0.77800
Zn625      Zn  0.09650869  0.40513354  0.71147787     1.55700
O626        O  0.13542035  0.20224441  0.64926976    -0.79200
Cd627      Cd  0.07434022  0.23977178  0.68563765     1.59700
Cd628      Cd  0.07791125  0.39132274  0.63806526     1.59600
O629        O  0.04915199  0.21393871  0.64445446    -0.79200
O630        O  0.09273518  0.33769338  0.67645650    -1.89700
Cd631      Cd  0.13232615  0.30707989  0.66688331     1.59900
O632        O  0.05771720  0.30884690  0.60986734    -0.79200
O633        O  0.15697066  0.31169600  0.70727203    -0.77800
C634        C  0.05486976  0.51999170  0.67882656     0.84700
C635        C  0.05772158  0.30185895  0.75286929     0.84400
O636        O  0.14082617  0.42330369  0.72187348    -0.76800
C637        C  0.12956141  0.14997559  0.66891573     0.85200
O638        O  0.07290401  0.50018739  0.70101839    -0.76900
C639        C  0.04772190  0.24330942  0.61607571     0.85300
C640        C  0.14102415  0.43181014  0.61868457     0.85600
O641        O  0.11349702  0.44162994  0.61496417    -0.79300
C642        C  0.26132338  0.91290888  0.74125200     0.04800
C643        C  0.24384495  0.93819396  0.71512643    -0.11300
C644        C  0.21338525  0.94837520  0.71915939     0.02300
C645        C  0.20130729  0.93398050  0.74951263    -0.09800
C646        C  0.21799407  0.90667276  0.77525002     0.04800
C647        C  0.24806123  0.89563055  0.77097272    -0.09300
H648        H  0.25403562  0.95071043  0.69214232     0.10400
H649        H  0.17876047  0.94985513  0.75401699     0.07900
H650        H  0.26137717  0.87713351  0.79115469     0.07800
C651        C  0.03921615  0.26183301  0.84052983     0.04800
C652        C  0.04923203  0.25027408  0.80865955    -0.11300
C653        C  0.04153961  0.30025733  0.78378048     0.02300
C654        C  0.02245379  0.35987456  0.79041040    -0.09800
C655        C  0.01175686  0.37265600  0.82168950     0.04800
C656        C  0.02071548  0.32408762  0.84688273    -0.09300
H657        H  0.06490861  0.20611154  0.80369892     0.10400
H658        H  0.01713493  0.39917304  0.77119725     0.07900
H659        H  0.01333511  0.33469007  0.87127857     0.07800
O660        O  0.90731913  0.52474567  0.78024442    -0.76800
C661        C  0.98888863  0.65772476  0.75187570     0.84300
O662        O  0.99382414  0.47700779  0.85293322    -0.77900
O663        O  0.99472160  0.74775491  0.85933720    -0.79400
O664        O  0.90464425  0.74775465  0.85064016    -0.79200
O665        O  0.89007804  0.63718438  0.79099828    -0.77800
Zn666      Zn  0.95079258  0.55057977  0.79222215     1.55700
O667        O  0.93495848  0.80133824  0.81602207    -0.79200
Cd668      Cd  0.91179847  0.64421439  0.83329141     1.59700
Cd669      Cd  0.96691135  0.56814888  0.86651459     1.59600
O670        O  0.89331951  0.56837189  0.86231373    -0.79200
O671        O  0.95250560  0.61957435  0.82715434    -1.89700
Cd672      Cd  0.96938671  0.71993415  0.81836548     1.59900
O673        O  0.93073272  0.52063281  0.89006584    -0.79200
O674        O  0.99107089  0.70938621  0.77314313    -0.77800
C675        C  0.99235509  0.43903445  0.82689084     0.84700
C676        C  0.88628039  0.57246971  0.77969353     0.84400
O677        O  0.97309231  0.59982453  0.75615434    -0.76800
C678        C  0.91156723  0.80311101  0.83314031     0.85200
O679        O  0.97531697  0.45875515  0.80381222    -0.76900
C680        C  0.90331209  0.52495936  0.88395349     0.85300
C681        C  0.99702064  0.71802350  0.88757477     0.85600
O682        O  0.98735719  0.65215486  0.89389287    -0.79300
C683        C  0.78366439  0.05196883  0.76372929     0.04800
C684        C  0.80018116  0.02857809  0.79084950    -0.11300
C685        C  0.83090270  0.02141339  0.78873030     0.02300
C686        C  0.84467351  0.04095335  0.75978154    -0.09800
C687        C  0.82848950  0.05909359  0.73230256     0.04800
C688        C  0.79805890  0.06680442  0.73448106    -0.09300
H689        H  0.78908033  0.01283818  0.81294305     0.10400
H690        H  0.86788490  0.02963235  0.75695075     0.07900
H691        H  0.78542227  0.07781808  0.71280959     0.07800
C692        C  0.00956970  0.76307688  0.91454809     0.04800
C693        C  0.02901531  0.82315012  0.90860824    -0.11300
C694        C  0.03888246  0.86849403  0.93417653     0.02300
C695        C  0.02821586  0.85477662  0.96540789    -0.09800
C696        C  0.00788917  0.79818026  0.97162727     0.04800
C697        C  0.99929879  0.75118635  0.94638905    -0.09300
H698        H  0.03636965  0.83465299  0.88426931     0.10400
H699        H  0.03414604  0.89210303  0.98480850     0.07900
H700        H  0.98277471  0.70932344  0.95106635     0.07800
O701        O  0.14407121  0.03033110  0.97477201    -0.76800
C702        C  0.06082921  0.15469199  0.00291521     0.84300
O703        O  0.05548239  0.97444760  0.90335451    -0.77900
O704        O  0.05346063  0.24312464  0.89550119    -0.79400
O705        O  0.14089742  0.24382225  0.89851678    -0.79200
O706        O  0.15772413  0.14370813  0.96016027    -0.77800
Zn707      Zn  0.09949615  0.04710577  0.96275375     1.55700
O708        O  0.11340037  0.29294279  0.93697274    -0.79200
Cd709      Cd  0.13621028  0.14082184  0.91794039     1.59700
Cd710      Cd  0.08182302  0.06381962  0.88849343     1.59600
O711        O  0.15567592  0.06115249  0.89117103    -0.79200
O712        O  0.09627963  0.11449918  0.92707610    -1.89700
Cd713      Cd  0.07910499  0.21421249  0.93578885     1.59900
O714        O  0.11762866  0.01272658  0.86568257    -0.79200
O715        O  0.05823458  0.20607819  0.98127674    -0.77800
C716        C  0.05816549  0.93460111  0.92900896     0.84700
C717        C  0.16349762  0.08179149  0.97365212     0.84400
O718        O  0.07665867  0.09626601  0.99874619    -0.76800
C719        C  0.13552857  0.29623959  0.91804590     0.85200
O720        O  0.07599337  0.95257854  0.95156545    -0.76900
C721        C  0.14514739  0.01534933  0.87119406     0.85300
C722        C  0.05145195  0.21466705  0.86726944     0.85600
O723        O  0.06133656  0.14889809  0.86084412    -0.79300
C724        C  0.26153455  0.54407819  0.99325382     0.04800
C725        C  0.24607593  0.51187340  0.96744368    -0.11300
C726        C  0.21570196  0.50104127  0.96976124     0.02300
C727        C  0.19936450  0.51687664  0.49788718    -0.09800
C728        C  0.21587474  0.54087573  0.52406054     0.04800
C729        C  0.24608313  0.54983022  0.52045809    -0.09300
H730        H  0.25769742  0.49420483  0.94598492     0.10400
H731        H  0.17653409  0.50342621  0.50175176     0.07900
H732        H  0.25908557  0.56545828  0.54112904     0.07800
C733        C  0.50724549  0.70630292  0.58916371     0.04800
C734        C  0.49595766  0.71496287  0.55752415    -0.11300
C735        C  0.50292021  0.66263450  0.53346409     0.02300
C736        C  0.52242272  0.60403385  0.54061689    -0.09800
C737        C  0.53410244  0.59429125  0.57164812     0.04800
C738        C  0.52606127  0.64494075  0.59597877    -0.09300
H739        H  0.48003409  0.75847769  0.55233492     0.10400
H740        H  0.52730273  0.56307533  0.52216780     0.07900
H741        H  0.53433207  0.63628508  0.62026508     0.07800
O742        O  0.63880892  0.43694036  0.53328943    -0.76800
C743        C  0.55822618  0.30645172  0.50566360     0.84300
O744        O  0.55078582  0.49098961  0.60434982    -0.77900
O745        O  0.55102923  0.22198121  0.61401143    -0.79400
O746        O  0.63878013  0.21729769  0.60973305    -0.79200
O747        O  0.65911229  0.33413972  0.55404980    -0.77800
Zn748      Zn  0.59544863  0.41515325  0.54600617     1.55700
O749        O  0.61034786  0.16826811  0.57241826    -0.79200
Cd750      Cd  0.63318076  0.32303974  0.59312593     1.59700
Cd751      Cd  0.57719865  0.40192164  0.62069972     1.59600
O752        O  0.64926922  0.39470393  0.62498583    -0.79200
O753        O  0.59333560  0.34944726  0.58242521    -1.89700
Cd754      Cd  0.57639399  0.24962046  0.57343396     1.59900
O755        O  0.61111767  0.45162699  0.64707690    -0.79200
O756        O  0.55549291  0.25610718  0.52769672    -0.77800
C757        C  0.55328253  0.52830355  0.57799080     0.84700
C758        C  0.66075814  0.39256127  0.53668765     0.84400
O759        O  0.57370772  0.36478988  0.50980241    -0.76800
C760        C  0.63262753  0.16402747  0.59108673     0.85200
O761        O  0.57107489  0.50827417  0.55574666    -0.76900
C762        C  0.63873227  0.44164681  0.64452088     0.85300
C763        C  0.54822594  0.25125367  0.64203978     0.85600
O764        O  0.55684791  0.31778592  0.64822355    -0.79300
C765        C  0.75886589  0.91093399  0.52010079     0.04800
C766        C  0.74280049  0.93865656  0.54666142    -0.11300
C767        C  0.71215622  0.94799327  0.54458658     0.02300
C768        C  0.70449630  0.94570276  0.01321083    -0.09800
C769        C  0.71935918  0.91797134  0.98639173     0.04800
C770        C  0.74981690  0.90918188  0.98791694    -0.09300
H771        H  0.75418497  0.95485722  0.56838655     0.10400
H772        H  0.68134534  0.95845727  0.01113423     0.07900
H773        H  0.76155571  0.88976604  0.96684975     0.07800
C774        C  0.53664416  0.20392827  0.66883227     0.04800
C775        C  0.54756017  0.21280903  0.70052494    -0.11300
C776        C  0.54058383  0.16106567  0.72499412     0.02300
C777        C  0.52127028  0.10271245  0.71805796    -0.09800
C778        C  0.50980829  0.09307707  0.68692985     0.04800
C779        C  0.51804291  0.14313313  0.66224871    -0.09300
H780        H  0.56340062  0.25599580  0.70547278     0.16800
H781        H  0.51637585  0.06193005  0.73676640     0.07900
H782        H  0.51007489  0.13464185  0.63796892     0.07800
O783        O  0.40565193  0.93276200  0.72517686    -0.76800
C784        C  0.48866086  0.80633755  0.75286907     0.84300
O785        O  0.49271522  0.99177254  0.65426032    -0.77900
O786        O  0.49469343  0.72506031  0.64431000    -0.79400
O787        O  0.40906003  0.71898040  0.64905649    -0.79200
O788        O  0.39025247  0.82212565  0.70923666    -0.77800
Zn789      Zn  0.44953710  0.91408661  0.71321046     1.55700
O790        O  0.43665711  0.67043872  0.68778206    -0.79200
Cd791      Cd  0.41261853  0.82265692  0.66746690     1.59700
Cd792      Cd  0.46612895  0.90411583  0.63812272     1.59600
O793        O  0.39268867  0.89937074  0.63912918    -0.79200
O794        O  0.45230304  0.85034094  0.67681230    -1.89700
Cd795      Cd  0.47027462  0.75113664  0.68552130     1.59900
O796        O  0.42998269  0.95600083  0.61522224    -0.79200
O797        O  0.49207502  0.75756734  0.73058350    -0.77800
C798        C  0.49060090  0.02794597  0.68077543     0.84700
C799        C  0.38558641  0.88325655  0.72356215     0.84400
O800        O  0.47199411  0.86347790  0.74930406    -0.76800
C801        C  0.41459976  0.66655112  0.66885051     0.85200
O802        O  0.47308704  0.00766565  0.70326821    -0.76900
C803        C  0.40244999  0.94808646  0.61967158     0.85300
C804        C  0.49586308  0.75394555  0.61589342     0.85600
O805        O  0.48594677  0.81998033  0.60956071    -0.79300
C806        C  0.28541011  0.41924533  0.73935272     0.04800
C807        C  0.29936573  0.40021264  0.76858861    -0.11300
C808        C  0.32952810  0.41101633  0.77232826     0.02300
C809        C  0.34581376  0.43796573  0.74630884    -0.09800
C810        C  0.33256415  0.45880323  0.71724557     0.04800
C811        C  0.30212548  0.44941106  0.71375291    -0.09300
H812        H  0.28649995  0.38107946  0.78896958     0.10400
H813        H  0.36867334  0.45124342  0.75002607     0.07900
H814        H  0.29145834  0.46665610  0.69155887     0.07800
C815        C  0.53683834  0.25845947  0.91837139     0.04800
C816        C  0.51785795  0.31985533  0.91172112    -0.11300
C817        C  0.50934422  0.36955175  0.93639216     0.02300
C818        C  0.52094784  0.35885847  0.96745962    -0.09800
C819        C  0.54073989  0.30053351  0.97437591     0.04800
C820        C  0.54789571  0.24913149  0.95005859    -0.09300
H821        H  0.50987231  0.32914960  0.88744054     0.10400
H822        H  0.51593585  0.39916334  0.98610804     0.07900
H823        H  0.56403800  0.20584623  0.95510453     0.07800
O824        O  0.47124142  0.60114475  0.99872366    -0.76800
C825        C  0.38455977  0.58393541  0.97334826     0.84300
O826        O  0.49242318  0.47380193  0.90406487    -0.77900
O827        O  0.39251601  0.57283577  0.88691788    -0.79400
O828        O  0.43631135  0.80124291  0.93567478    -0.79200
O829        O  0.49001660  0.70921791  0.98082944    -0.77800
Zn830      Zn  0.44897566  0.55210469  0.96275592     1.55700
O831        O  0.40723685  0.75312797  0.89872197    -0.79200
Cd832      Cd  0.46916393  0.71675913  0.93517744     1.59700
Cd833      Cd  0.46602073  0.56404114  0.88840520     1.59600
O834        O  0.49484722  0.74120047  0.89462916    -0.79200
O835        O  0.45122395  0.61810232  0.92653393    -1.89700
Cd836      Cd  0.41143093  0.64748392  0.91642516     1.59900
O837        O  0.48650529  0.64703855  0.86018938    -0.79200
O838        O  0.38785465  0.64405261  0.95746110    -0.77800
C839        C  0.49012049  0.43617734  0.93037080     0.84700
C840        C  0.48705320  0.65886771  0.00280756     0.84400
O841        O  0.40535103  0.53559880  0.97552721    -0.76800
C842        C  0.41412168  0.80678806  0.91691698     0.85200
O843        O  0.47259527  0.45670801  0.95285178    -0.76900
C844        C  0.49653371  0.71229319  0.86643562     0.85300
C845        C  0.40285263  0.52376085  0.86810733     0.85600
O846        O  0.43047662  0.51477656  0.86470904    -0.79300
C847        C  0.28896631  0.06451949  0.98540446     0.04800
C848        C  0.30564642  0.03946006  0.95880230    -0.11300
C849        C  0.33623476  0.02929742  0.96157740     0.02300
C850        C  0.34545005  0.03795306  0.49894435    -0.09800
C851        C  0.32846046  0.06455121  0.52442872     0.04800
C852        C  0.29833746  0.07545772  0.51997178    -0.09300
H853        H  0.29468166  0.02481742  0.93659431     0.10400
H854        H  0.36810928  0.02330573  0.50366425     0.07900
H855        H  0.28491261  0.09245605  0.54022377     0.07800
C856        C  0.50859870  0.75886970  0.83965444     0.04800
C857        C  0.49788020  0.75013273  0.80789711    -0.11300
C858        C  0.50536690  0.80136197  0.78342957     0.02300
C859        C  0.52490225  0.85909344  0.79040491    -0.09800
C860        C  0.53605525  0.86887462  0.82164210     0.04800
C861        C  0.52744220  0.81920702  0.84631227    -0.09300
H862        H  0.48183563  0.70753228  0.80285142     0.10400
H863        H  0.53008528  0.89957680  0.77166375     0.07900
H864        H  0.53521944  0.82786557  0.87066402     0.07800
O865        O  0.57308760  0.09778423  0.75971445    -0.76800
C866        C  0.66020099  0.07744686  0.78382639     0.84300
O867        O  0.55241991  0.97142982  0.85405203    -0.77900
O868        O  0.65191003  0.05892875  0.86979077    -0.79400
O869        O  0.61086598  0.29236562  0.82250755    -0.79200
O870        O  0.55524324  0.20733466  0.77718475    -0.77800
Zn871      Zn  0.59605814  0.04789404  0.79540617     1.55700
O872        O  0.63767052  0.23920749  0.86082670    -0.79200
Cd873      Cd  0.57644147  0.21299578  0.82289994     1.59700
Cd874      Cd  0.57866784  0.05967230  0.87037801     1.59600
O875        O  0.55085893  0.24024552  0.86339850    -0.79200
O876        O  0.59350591  0.11235153  0.83170250    -1.89700
Cd877      Cd  0.63343831  0.13696902  0.84124697     1.59900
O878        O  0.55821608  0.14462586  0.89813854    -0.79200
O879        O  0.65695268  0.13657967  0.80008119    -0.77800
C880        C  0.55512485  0.93419968  0.82787197     0.84700
C881        C  0.55745108  0.15652411  0.75553708     0.84400
O882        O  0.63955760  0.02960900  0.78188277    -0.76800
C883        C  0.63263559  0.29377473  0.84199352     0.85200
O884        O  0.57299247  0.95383986  0.80562578    -0.76900
C885        C  0.54871626  0.21104995  0.89169040     0.85300
C886        C  0.64164517  0.01253427  0.88993944     0.85600
O887        O  0.61404323  0.00745669  0.89465441    -0.79300
C888        C  0.76158608  0.53232315  0.76993259     0.04800
C889        C  0.74588920  0.55197034  0.74189863    -0.11300
C890        C  0.71542195  0.54510258  0.74075927     0.02300
C891        C  0.70046439  0.52133497  0.76815687    -0.09800
C892        C  0.71517428  0.49978043  0.79631167     0.04800
C893        C  0.74603468  0.50552985  0.79721369    -0.09300
H894        H  0.75755140  0.56795988  0.72017663     0.10400
H895        H  0.67725196  0.51034502  0.76605829     0.07900
H896        H  0.75784205  0.48825738  0.81868000     0.07800
C897        C  0.64708911  0.42823802  0.83538787     0.25300
C898        C  0.65489610  0.35306538  0.83982100    -0.22800
C899        C  0.68474248  0.33248319  0.83867770     0.20200
C900        C  0.70584803  0.38396063  0.82872749     0.25200
C901        C  0.69756758  0.45749952  0.82054919    -0.22800
C902        C  0.66845613  0.48065509  0.82699552     0.20100
F903        F  0.66003226  0.55249707  0.82125925    -0.12700
F904        F  0.61864669  0.45013251  0.83753265    -0.15100
F905        F  0.73350822  0.35899219  0.82317375    -0.15100
F906        F  0.69312386  0.26023894  0.84347521    -0.12700
C907        C  0.34363022  0.91324966  0.92919531     0.25300
C908        C  0.35383651  0.98388348  0.93842923    -0.22800
C909        C  0.38372706  0.00041983  0.93336886     0.20200
C910        C  0.40360682  0.94394047  0.92467029     0.25200
C911        C  0.39367936  0.87122481  0.91905312    -0.22800
C912        C  0.36331200  0.85782837  0.91930307     0.20100
F913        F  0.35281921  0.78832328  0.91366964    -0.12700
F914        F  0.31519268  0.89426195  0.93356149    -0.15100
F915        F  0.43262123  0.95939454  0.92327724    -0.15100
F916        F  0.39410741  0.06951576  0.94005354    -0.12700
C917        C  0.37226544  0.38577091  0.80820349     0.25300
C918        C  0.34363570  0.41410309  0.80435595    -0.22800
C919        C  0.33293123  0.46622304  0.82661286     0.20200
C920        C  0.35177544  0.49806281  0.84896422     0.25200
C921        C  0.38182326  0.47845794  0.84937802    -0.22800
C922        C  0.39135602  0.41822517  0.83032127     0.20100
F923        F  0.41953244  0.39376497  0.83152547    -0.12700
F924        F  0.38269338  0.33275058  0.78785281    -0.15100
F925        F  0.34088163  0.55287874  0.86812056    -0.15100
F926        F  0.30529309  0.49407192  0.82396362    -0.12700
C927        C  0.35126179  0.97055600  0.59978117     0.25300
C928        C  0.38076030  0.99366824  0.60133430    -0.22800
C929        C  0.38914316  0.05756570  0.58373040     0.20200
C930        C  0.36966484  0.09081134  0.56177643     0.25200
C931        C  0.34182978  0.05981373  0.55678245    -0.22800
C932        C  0.33202848  0.00346229  0.57772264     0.20100
F933        F  0.30519584  0.97271341  0.57373337    -0.12700
F934        F  0.34151618  0.91120239  0.61723818    -0.15100
F935        F  0.37910626  0.14758737  0.54260610    -0.15100
F936        F  0.41662690  0.08515668  0.58625225    -0.12700
C937        C  0.36288772  0.62865894  0.67623985     0.25300
C938        C  0.39253123  0.60758555  0.67308388    -0.22800
C939        C  0.40056849  0.53259432  0.67771674     0.20200
C940        C  0.37962257  0.48046441  0.68763203     0.25200
C941        C  0.35061115  0.50340430  0.69444000    -0.22800
C942        C  0.34218030  0.57727990  0.68715566     0.20100
F943        F  0.31482234  0.60229588  0.69430600    -0.12700
F944        F  0.35449408  0.70113988  0.67221133    -0.15100
F945        F  0.38825622  0.40888736  0.69357863    -0.15100
F946        F  0.42886562  0.51060854  0.67403475    -0.12700
C947        C  0.71301961  0.95582665  0.92892385     0.25300
C948        C  0.70297377  0.91466235  0.95560851    -0.22800
C949        C  0.67387027  0.88905258  0.95561010     0.20200
C950        C  0.65383655  0.91649645  0.93285834     0.25200
C951        C  0.66300560  0.96747796  0.90900917    -0.22800
C952        C  0.69333632  0.98092627  0.90555292     0.20100
F953        F  0.70393186  0.02419046  0.88120509    -0.12700
F954        F  0.74105954  0.98019309  0.92733817    -0.15100
F955        F  0.62527483  0.89722009  0.93565276    -0.15100
F956        F  0.66413645  0.84418780  0.97985231    -0.12700
C957        C  0.68949542  0.45855917  0.66534714     0.25300
C958        C  0.65989410  0.48232477  0.66483244    -0.22800
C959        C  0.65127161  0.54181664  0.68478995     0.20200
C960        C  0.67108766  0.57128084  0.70700749     0.25200
C961        C  0.69951992  0.54078847  0.70987652    -0.22800
C962        C  0.70894591  0.48735221  0.68759461     0.20100
F963        F  0.73592302  0.45535346  0.68996864    -0.12700
F964        F  0.69942779  0.40242076  0.64626872    -0.15100
F965        F  0.66176673  0.62465706  0.72782136    -0.15100
F966        F  0.62343613  0.56885883  0.68405418    -0.12700
C967        C  0.66525242  0.97351054  0.57423931     0.25300
C968        C  0.69470228  0.99273023  0.56801442    -0.22800
C969        C  0.70419900  0.06451533  0.57647533     0.20200
C970        C  0.68405032  0.11824146  0.58697192     0.25200
C971        C  0.65393684  0.10185024  0.58838690    -0.22800
C972        C  0.64488024  0.02823411  0.58343379     0.20100
F973        F  0.61616471  0.01020134  0.58596389    -0.12700
F974        F  0.65563691  0.90341668  0.56810136    -0.15100
F975        F  0.69364741  0.18882245  0.59211741    -0.15100
F976        F  0.73617349  0.10979548  0.06363513    -0.12700
C977        C  0.30939531  0.48185889  0.47575074     0.25300
C978        C  0.29373626  0.55206883  0.99192411    -0.22800
C979        C  0.30649785  0.62204971  0.99710389     0.20200
C980        C  0.33672001  0.63080981  0.99416149     0.25200
C981        C  0.35485623  0.56964064  0.98601181    -0.22800
C982        C  0.34227137  0.49861272  0.98289911     0.20100
F983        F  0.35559313  0.43439607  0.45839675    -0.12700
F984        F  0.29668099  0.41778975  0.46571142    -0.15100
F985        F  0.34811322  0.70021299  0.99758188    -0.15100
F986        F  0.28950513  0.68294682  0.00320047    -0.12700
C987        C  0.18721291  0.33300140  0.92674002     0.25300
C988        C  0.15774550  0.35458904  0.92225831    -0.22800
C989        C  0.14966243  0.42946698  0.92652220     0.20200
C990        C  0.17016698  0.48078252  0.93770981     0.25200
C991        C  0.19872389  0.45710389  0.94612053    -0.22800
C992        C  0.20747297  0.38361563  0.93897363     0.20100
F993        F  0.22977965  0.36875424  0.43477471    -0.12700
F994        F  0.19565921  0.26066183  0.92283390    -0.15100
F995        F  0.16137295  0.55213732  0.94339522    -0.15100
F996        F  0.12158941  0.45194249  0.92146448    -0.12700
C997        C  0.21046568  0.13215631  0.99453078     0.25300
C998        C  0.19432796  0.07021363  0.98379931    -0.22800
C999        C  0.20958805  0.00497106  0.97495089     0.20200
C1000       C  0.24033536  0.00310179  0.97526841     0.25200
C1001       C  0.25638818  0.06635842  0.98454709    -0.22800
C1002       C  0.23790291  0.12956291  0.49551477     0.20100
F1003       F  0.25307840  0.19061245  0.50491338    -0.12700
F1004       F  0.19408722  0.20096194  0.49945601    -0.15100
F1005       F  0.25443203  0.93954618  0.96627409    -0.15100
F1006       F  0.19486685  0.94496233  0.96370957    -0.12700
C1007       C  0.73627483  0.12051108  0.75587024     0.25300
C1008       C  0.75121465  0.05458662  0.76470429    -0.22800
C1009       C  0.73494220  0.99149709  0.77404445     0.20200
C1010       C  0.70436351  0.99602425  0.77674686     0.25200
C1011       C  0.68969284  0.06390545  0.77038351    -0.22800
C1012       C  0.70585781  0.12523202  0.75882002     0.20100
F1013       F  0.69228751  0.19143861  0.75226632    -0.12700
F1014       F  0.75131652  0.18192093  0.74622523    -0.15100
F1015       F  0.68945737  0.93610570  0.78822839    -0.15100
F1016       F  0.74872998  0.92597183  0.78119678    -0.12700
C1017       C  0.85995646  0.84777230  0.82817266     0.25300
C1018       C  0.88999017  0.86501869  0.83012748    -0.22800
C1019       C  0.89860195  0.93962638  0.82644240     0.20200
C1020       C  0.87789349  0.99480746  0.81817842     0.25200
C1021       C  0.84853224  0.97544133  0.81181138    -0.22800
C1022       C  0.83948983  0.90221516  0.81891691     0.20100
F1023       F  0.81159593  0.88056952  0.81299826    -0.12700
F1024       F  0.85069182  0.77620401  0.83171891    -0.15100
F1025       F  0.88705300  0.06595563  0.81311196    -0.15100
F1026       F  0.92716961  0.95849890  0.82947305    -0.12700
C1027       C  0.84305754  0.48591450  0.77978906     0.25300
C1028       C  0.85599275  0.55351256  0.76984094    -0.22800
C1029       C  0.83778866  0.61088253  0.75762731     0.20200
C1030       C  0.80738951  0.60348072  0.75767419     0.25200
C1031       C  0.79419056  0.53793414  0.76949505    -0.22800
C1032       C  0.81240128  0.47817138  0.77959859     0.20100
F1033       F  0.80055054  0.41259305  0.78957303    -0.12700
F1034       F  0.85986518  0.42937545  0.79182583    -0.15100
F1035       F  0.79076188  0.66247700  0.74768754    -0.15100
F1036       F  0.84944603  0.67638325  0.74722159    -0.12700
C1037       C  0.31042067  0.97035231  0.72991658     0.25300
C1038       C  0.29365120  0.90766577  0.73866780    -0.22800
C1039       C  0.30806046  0.84057028  0.74685315     0.20200
C1040       C  0.33849395  0.83510829  0.74495167     0.25200
C1041       C  0.35530458  0.89664816  0.73478431    -0.22800
C1042       C  0.34104786  0.96496196  0.72807099     0.20100
F1043       F  0.35650336  0.02487276  0.71752560    -0.12700
F1044       F  0.29711856  0.03662834  0.72294890    -0.15100
F1045       F  0.35151638  0.76822920  0.75159586    -0.15100
F1046       F  0.29252022  0.77911420  0.75538792    -0.12700
C1047       C  0.15558036  0.91240382  0.83185891     0.25300
C1048       C  0.16582967  0.96689746  0.85323721    -0.22800
C1049       C  0.19631756  0.97908589  0.85522868     0.20200
C1050       C  0.21510435  0.94902906  0.83212576     0.25200
C1051       C  0.20378168  0.90493911  0.80730456    -0.22800
C1052       C  0.17466469  0.88016133  0.80959063     0.20100
F1053       F  0.16374160  0.83295775  0.78717544    -0.12700
F1054       F  0.12679110  0.89444759  0.83069173    -0.15100
F1055       F  0.24342547  0.97142395  0.83169185    -0.15100
F1056       F  0.20781354  0.02573926  0.87750202    -0.12700
C1057       C  0.17286154  0.56883018  0.55876593     0.25300
C1058       C  0.20145830  0.53971626  0.55592046    -0.22800
C1059       C  0.21183310  0.48947906  0.57946092     0.20200
C1060       C  0.19255396  0.45925064  0.60193813     0.25200
C1061       C  0.16241878  0.47778264  0.60073608    -0.22800
C1062       C  0.15324931  0.53710690  0.58065212     0.20100
F1063       F  0.12496451  0.56088856  0.58046801    -0.12700
F1064       F  0.16291207  0.62103611  0.53741120    -0.15100
F1065       F  0.20315680  0.40679786  0.62282367    -0.15100
F1066       F  0.23953920  0.46166118  0.57811789    -0.12700
C1067       C  0.14253412  0.01726873  0.68391041     0.25300
C1068       C  0.15095565  0.08761587  0.67226064    -0.22800
C1069       C  0.18107659  0.10175322  0.66769968     0.20200
C1070       C  0.20225290  0.05153384  0.67935945     0.25200
C1071       C  0.19372445  0.98505410  0.69483979    -0.22800
C1072       C  0.16378928  0.96521692  0.69381602     0.20100
F1073       F  0.15486576  0.89826623  0.70579977    -0.12700
F1074       F  0.11378228  0.00040320  0.68739946    -0.15100
F1075       F  0.23072994  0.07245413  0.67873004    -0.15100
F1076       F  0.19024023  0.16807180  0.65533183    -0.12700
C1077       C  0.21042581  0.33027149  0.73982071     0.25300
C1078       C  0.19191865  0.39021747  0.73065666    -0.22800
C1079       C  0.20437724  0.46111154  0.72553449     0.20200
C1080       C  0.23477291  0.47092311  0.72835772     0.25200
C1081       C  0.25319307  0.41018555  0.73652002    -0.22800
C1082       C  0.24060900  0.34021688  0.74276671     0.20100
F1083       F  0.25777821  0.28036252  0.75039081    -0.12700
F1084       F  0.19938875  0.26089099  0.74487618    -0.15100
F1085       F  0.24624015  0.53966396  0.72294568    -0.15100
F1086       F  0.18746064  0.51979121  0.71583734    -0.12700
C1087       C  0.73661215  0.35483261  0.50638992     0.25300
C1088       C  0.75115230  0.42037206  0.51543525    -0.22800
C1089       C  0.73442930  0.48187201  0.52620677     0.20200
C1090       C  0.70397255  0.47603249  0.52986087     0.25200
C1091       C  0.68982509  0.40861274  0.52282751    -0.22800
C1092       C  0.70632784  0.34902055  0.51012786     0.20100
F1093       F  0.69325451  0.28308413  0.50330768    -0.12700
F1094       F  0.75195686  0.29442316  0.49592122    -0.15100
F1095       F  0.68876177  0.53389188  0.54287825    -0.15100
F1096       F  0.74766136  0.54702362  0.53390407    -0.12700
C1097       C  0.87097695  0.38936150  0.94427789     0.25300
C1098       C  0.84264561  0.41984612  0.94771129    -0.22800
C1099       C  0.83274161  0.47342471  0.92532728     0.20200
C1100       C  0.85208816  0.50382335  0.90299033     0.25200
C1101       C  0.88184003  0.48152120  0.90286239    -0.22800
C1102       C  0.89063046  0.42076573  0.92231214     0.20100
F1103       F  0.91859326  0.39465389  0.92149317    -0.12700
F1104       F  0.88062281  0.33534230  0.96495084    -0.15100
F1105       F  0.84211931  0.56039489  0.88379571    -0.15100
F1106       F  0.80555997  0.50409336  0.92786478    -0.12700
C1107       C  0.83557758  0.97414801  0.68694242     0.25300
C1108       C  0.84271209  0.04219587  0.70139778    -0.22800
C1109       C  0.86879380  0.07829855  0.69264223     0.20200
C1110       C  0.88854274  0.04382237  0.67151671     0.25200
C1111       C  0.88237831  0.97274560  0.65910588    -0.22800
C1112       C  0.85521507  0.93955458  0.66618856     0.20100
F1113       F  0.84854689  0.87033169  0.65527809    -0.12700
F1114       F  0.81123518  0.93631930  0.69611292    -0.15100
F1115       F  0.91394971  0.07874369  0.66402672    -0.15100
F1116       F  0.87606818  0.14399748  0.70656614    -0.12700
C1117       C  0.84118134  0.57320364  0.56663997     0.25300
C1118       C  0.84865991  0.49812978  0.56108264    -0.22800
C1119       C  0.87704402  0.47274869  0.56941687     0.20200
C1120       C  0.89853499  0.52349238  0.57900846     0.25200
C1121       C  0.89156427  0.59956450  0.58168360    -0.22800
C1122       C  0.86236372  0.62321986  0.57716052     0.20100
F1123       F  0.85494761  0.69660992  0.57962849    -0.12700
F1124       F  0.81345745  0.58926581  0.06874469    -0.15100
F1125       F  0.92628307  0.49894460  0.58446352    -0.15100
F1126       F  0.88460617  0.39991699  0.56526924    -0.12700
C1127       C  0.83601422  0.83346030  0.51258157     0.25300
C1128       C  0.85321088  0.89393300  0.52274672    -0.22800
C1129       C  0.83921410  0.96191852  0.53024552     0.20200
C1130       C  0.80854105  0.96787620  0.52925487     0.25200
C1131       C  0.79138054  0.90598536  0.52069740    -0.22800
C1132       C  0.80552383  0.83940800  0.51157597     0.20100
F1133       F  0.78971035  0.77855936  0.50326635    -0.12700
F1134       F  0.84873782  0.76684096  0.50527179    -0.15100
F1135       F  0.80318994  0.04777221  0.03662651    -0.15100
F1136       F  0.85500216  0.02070746  0.54093127    -0.12700
loop_ 
_geom_bond_atom_site_label_1 
_geom_bond_atom_site_label_2 
_geom_bond_distance 
_geom_bond_site_symmetry_2 
_ccdc_geom_bond_type 
C1            C2   1.416       .  A
C1            C6   1.417       .  A
C1           C71   1.493       .  S
C2            C3   1.405       .  A
C2            H7   1.083       .  S
C3            C4   1.401       .  A
C3          C702   1.480       .  S
C4            C5   1.403       .  A
C4            H8   1.086       .  S
C5            C6   1.410       .  A
C5           C25   1.490   1_455  S
C6            H9   1.083       .  S
O10          C26   1.277       .  A
O10         Zn16   2.013       .  S
C11         C560   1.474       .  S
C11          O27   1.280       .  A
C11          O24   1.266       .  A
O12          C25   1.282   1_565  A
O12         Cd19   2.108       .  S
O13          C31   1.266       .  A
O13         Cd22   2.012       .  S
O14          C28   1.282       .  A
O14         Cd18   2.135       .  S
O15          C26   1.286       .  A
O15         Cd18   2.129       .  S
Zn16         O27   2.076       .  S
Zn16         O29   2.033   1_565  S
Zn16         O21   1.907       .  S
O17          C28   1.265       .  A
O17         Cd22   2.023       .  S
Cd18         O20   2.107       .  S
Cd18         O21   1.992       .  S
Cd19         O23   2.102       .  S
Cd19         O32   2.106       .  S
Cd19         O21   1.978       .  S
O20          C30   1.285       .  A
O21         Cd22   1.931       .  S
Cd22         O24   2.015       .  S
O23          C30   1.286       .  A
C25          O29   1.279       .  A
C26         C696   1.481   1_654  S
C28         C553   1.485       .  S
C30          C42   1.492   1_655  S
C31         C543   1.481       .  S
C31          O32   1.280       .  A
C33          C34   1.418       .  A
C33         C606   1.406   1_554  A
C33         C520   1.489       .  S
C34          C35   1.414       .  A
C34          H39   1.082       .  S
C35         C604   1.396       .  A
C35         C550   1.495       .  S
C36          C37   1.396       .  A
C36         C603   1.395       .  A
C36          H40   1.084       .  S
C37          C38   1.403       .  A
C37         C530   1.479       .  S
C38         C601   1.407       .  A
C38          H41   1.084       .  S
C42          C43   1.415       .  A
C42          C47   1.414   1_455  A
C43          C44   1.411       .  A
C43          H48   1.083       .  S
C44          C45   1.405       .  A
C44          C66   1.489       .  S
C45          C46   1.404       .  A
C45          H49   1.085       .  S
C46          C47   1.404   1_455  A
C46          C93   1.481   1_455  S
C47          H50   1.084       .  S
O51          C67   1.278       .  A
O51         Zn57   2.021       .  S
C52         C510   1.485       .  S
C52          O68   1.285       .  A
C52          O65   1.267       .  A
O53          C66   1.282       .  A
O53         Cd60   2.093       .  S
O54          C72   1.267       .  A
O54         Cd63   2.016       .  S
O55          C69   1.282       .  A
O55         Cd59   2.120       .  S
O56          C67   1.285       .  A
O56         Cd59   2.119       .  S
Zn57         O68   2.105       .  S
Zn57         O70   2.057       .  S
Zn57         O62   1.905       .  S
O58          C69   1.267       .  A
O58         Cd63   2.025       .  S
Cd59         O61   2.096       .  S
Cd59         O62   1.982       .  S
Cd60         O64   2.111       .  S
Cd60         O73   2.092       .  S
Cd60         O62   1.968       .  S
O61          C71   1.283       .  A
O62         Cd63   1.932       .  S
Cd63         O65   2.018       .  S
O64          C71   1.286       .  A
C66          O70   1.283       .  A
C67          C85   1.480       .  S
C69         C500   1.479       .  S
C72         C493   1.483       .  S
C72          O73   1.277       .  A
C74          C75   1.415       .  A
C74          C79   1.407       .  A
C74         C470   1.486       .  S
C75          C76   1.411       .  A
C75          H80   1.083       .  S
C76          C77   1.397       .  A
C76         C503   1.493       .  S
C77          C78   1.396       .  A
C77          H81   1.084       .  S
C78          C79   1.400       .  A
C78         C483   1.479       .  S
C79          H82   1.083       .  S
C83          C84   1.414       .  A
C83          C88   1.416       .  A
C83         C154   1.492       .  S
C84          C85   1.404       .  A
C84          H89   1.083       .  S
C85          C86   1.404       .  A
C86          C87   1.405       .  A
C86          H90   1.085       .  S
C87          C88   1.410       .  A
C87         C107   1.490   1_455  S
C88          H91   1.084       .  S
O92         C108   1.285       .  A
O92         Zn98   2.108       .  S
C93         O109   1.279       .  A
C93         O106   1.285       .  A
O94         C107   1.283       .  A
O94        Cd101   2.101       .  S
O95         C113   1.284       .  A
O95        Cd104   2.102       .  S
O96         C110   1.266       .  A
O96        Cd100   2.021       .  S
O97         C108   1.267       .  A
O97        Cd100   2.022       .  S
Zn98        O109   2.023       .  S
Zn98        O111   2.050       .  S
Zn98        O103   1.907       .  S
O99         C110   1.282       .  A
O99        Cd104   2.121       .  S
Cd100       O102   2.011       .  S
Cd100       O103   1.928       .  S
Cd101       O105   2.102       .  S
Cd101       O114   2.119       .  S
Cd101       O103   1.972       .  S
O102        C112   1.266       .  A
O103       Cd104   1.985       .  S
Cd104       O106   2.123       .  S
O105        C112   1.279       .  A
C107        O111   1.282       .  A
C108        C460   1.488       .  S
C110        C450   1.481       .  S
C112        C533   1.484       .  S
C113        C124   1.498   1_655  S
C113        O114   1.287       .  A
C115        C116   1.414       .  A
C115        C120   1.406       .  A
C115        C440   1.483       .  S
C116        C117   1.413       .  A
C116        H121   1.083       .  S
C117        C118   1.398       .  A
C117        C453   1.494   1_545  S
C118        C119   1.393       .  A
C118        H122   1.084       .  S
C119        C120   1.400       .  A
C119        C540   1.475       .  S
C120        H123   1.084       .  S
C124        C125   1.419       .  A
C124        C129   1.415   1_455  A
C125        C126   1.414       .  A
C125        H130   1.083       .  S
C126        C127   1.403       .  A
C126        C148   1.492       .  S
C127        C128   1.402       .  A
C127        H131   1.085       .  S
C128        C129   1.406   1_455  A
C128        C594   1.481   1_455  S
C129        H132   1.084       .  S
O133        C149   1.285       .  A
O133       Zn139   2.107       .  S
C134        C571   1.482       .  S
C134        O150   1.279       .  A
C134        O147   1.285       .  A
O135        C148   1.281       .  A
O135       Cd142   2.094   1_565  S
O136        C154   1.285       .  A
O136       Cd145   2.102       .  S
O137        C151   1.267       .  A
O137       Cd141   2.024       .  S
O138        C149   1.266       .  A
O138       Cd141   2.015       .  S
Zn139       O150   2.027       .  S
Zn139       O152   2.066   1_545  S
Zn139       O144   1.904       .  S
O140        C151   1.282       .  A
O140       Cd145   2.123       .  S
Cd141       O143   2.011       .  S
Cd141       O144   1.931       .  S
Cd142       O146   2.096       .  S
Cd142       O155   2.106       .  S
Cd142       O144   1.970       .  S
O143        C153   1.267       .  A
O144       Cd145   1.983       .  S
Cd145       O147   2.123       .  S
O146        C153   1.278       .  A
C148        O152   1.284       .  A
C149        C430   1.483       .  S
C151        C420   1.480       .  S
C153        C480   1.483   1_545  S
C154        O155   1.286       .  A
C156        C157   1.416       .  A
C156        C729   1.407       .  A
C156        C410   1.489       .  S
C157        C158   1.412       .  A
C157        H162   1.084       .  S
C158        C727   1.396       .  A
C158        C423   1.492       .  S
C159        C160   1.397   1_556  A
C159        C726   1.396       .  A
C159        H163   1.084   1_556  S
C160        C161   1.401       .  A
C160        C490   1.478       .  S
C161        C724   1.406   1_554  A
C161        H164   1.083       .  S
C165        C166   1.417       .  A
C165        C170   1.415       .  A
C165        C236   1.493       .  S
C166        C167   1.407       .  A
C166        H171   1.082       .  S
C167        C168   1.401       .  A
C167        C840   1.481       .  S
C168        C169   1.403       .  A
C168        H172   1.085       .  S
C169        C170   1.409       .  A
C169        C189   1.487       .  S
C170        H173   1.085       .  S
O174        C190   1.282       .  A
O174       Zn180   2.096       .  S
C175        C819   1.484   1_554  S
C175        O191   1.278       .  A
C175        O188   1.285       .  A
O176        C189   1.282       .  A
O176       Cd183   2.102       .  S
O177        C195   1.285       .  A
O177       Cd186   2.105       .  S
O178        C192   1.265       .  A
O178       Cd182   2.017       .  S
O179        C190   1.266       .  A
O179       Cd182   2.017       .  S
Zn180       O191   2.019       .  S
Zn180       O193   2.038       .  S
Zn180       O185   1.908       .  S
O181        C192   1.282       .  A
O181       Cd186   2.124       .  S
Cd182       O184   2.006       .  S
Cd182       O185   1.927       .  S
Cd183       O187   2.105       .  S
Cd183       O196   2.111       .  S
Cd183       O185   1.981       .  S
O184        C194   1.266       .  A
O185       Cd186   1.991       .  S
Cd186       O188   2.129       .  S
O187        C194   1.279       .  A
C189        O193   1.281       .  A
C190        C523   1.478       .  S
C192        C403   1.475       .  S
C194        C390   1.482       .  S
C195        C206   1.494       .  S
C195        O196   1.286       .  A
C197        C198   1.414       .  A
C197        C770   1.408   1_554  A
C197        C563   1.489       .  S
C198        C199   1.408       .  A
C198        H203   1.083       .  S
C199        C768   1.396       .  A
C199        C400   1.485   1_565  S
C200        C201   1.395       .  A
C200        C767   1.398       .  A
C200        H204   1.084       .  S
C201        C202   1.400       .  A
C201        C380   1.477       .  S
C202        C765   1.406       .  A
C202        H205   1.084       .  S
C206        C207   1.416       .  A
C206        C211   1.416       .  A
C207        C208   1.407       .  A
C207        H212   1.084       .  S
C208        C209   1.404       .  A
C208        C313   1.485       .  S
C209        C210   1.406       .  A
C209        H213   1.085       .  S
C210        C211   1.410       .  A
C210        C230   1.491       .  S
C211        H214   1.083       .  S
O215        C231   1.282       .  A
O215       Zn221   2.087       .  S
C216        C290   1.484       .  S
C216        O232   1.277       .  A
C216        O229   1.286       .  A
O217        C230   1.282   1_565  A
O217       Cd224   2.107       .  S
O218        C236   1.284       .  A
O218       Cd227   2.102       .  S
O219        C233   1.267       .  A
O219       Cd223   2.028       .  S
O220        C231   1.266       .  A
O220       Cd223   2.012       .  S
Zn221       O232   2.015       .  S
Zn221       O234   2.041   1_565  S
Zn221       O226   1.911       .  S
O222        C233   1.282       .  A
O222       Cd227   2.126       .  S
Cd223       O225   2.018       .  S
Cd223       O226   1.936       .  S
Cd224       O228   2.101       .  S
Cd224       O237   2.109       .  S
Cd224       O226   1.979       .  S
O225        C235   1.267       .  A
O226       Cd227   1.989       .  S
Cd227       O229   2.132       .  S
O228        C235   1.279       .  A
C230        O234   1.280       .  A
C231        C473   1.474       .  S
C233        C370   1.482       .  S
C235        C360   1.484       .  S
C236        O237   1.285       .  A
C238        C239   1.408       .  A
C238        C243   1.415       .  A
C238        C513   1.486       .  S
C239        C240   1.403       .  A
C239        H244   1.084       .  S
C240        C241   1.396       .  A
C240        C350   1.482       .  S
C241        C242   1.396       .  A
C241        H245   1.084       .  S
C242        C243   1.411       .  A
C242        C373   1.493       .  S
C243        H246   1.083       .  S
C247        C248   1.416       .  A
C247        C252   1.419       .  A
C247        C317   1.497       .  S
C248        C249   1.410       .  A
C248        H253   1.082       .  S
C249        C250   1.402       .  A
C249        C271   1.488       .  S
C250        C251   1.402       .  A
C250        H254   1.085       .  S
C251        C252   1.410       .  A
C251        C743   1.484       .  S
C252        H255   1.085       .  S
O256        C272   1.279       .  A
O256       Zn262   2.026       .  S
C257        C413   1.476       .  S
C257        O273   1.282       .  A
C257        O270   1.267       .  A
O258        C271   1.281       .  A
O258       Cd265   2.096       .  S
O259        C277   1.268       .  A
O259       Cd268   2.022       .  S
O260        C274   1.280       .  A
O260       Cd264   2.112       .  S
O261        C272   1.284       .  A
O261       Cd264   2.116       .  S
Zn262       O273   2.090       .  S
Zn262       O275   2.046       .  S
Zn262       O267   1.909       .  S
O263        C274   1.269       .  A
O263       Cd268   2.031       .  S
Cd264       O266   2.104       .  S
Cd264       O267   1.984       .  S
Cd265       O269   2.110       .  S
Cd265       O278   2.096       .  S
Cd265       O267   1.977       .  S
O266        C276   1.284       .  A
O267       Cd268   1.941       .  S
Cd268       O270   2.019       .  S
O269        C276   1.286       .  A
C271        O275   1.281       .  A
C272        C735   1.481       .  S
C274        C343   1.480       .  S
C276        C288   1.495       .  S
C277        C353   1.486       .  S
C277        O278   1.278       .  A
C279        C280   1.415       .  A
C279        C852   1.408       .  A
C279        C433   1.489       .  S
C280        C281   1.412       .  A
C280        H285   1.083       .  S
C281        C850   1.398       .  A
C281        C340   1.494   1_545  S
C282        C283   1.396   1_556  A
C282        C849   1.399       .  A
C282        H286   1.084       .  S
C283        C284   1.400       .  A
C283        C363   1.478       .  S
C284        C847   1.405   1_554  A
C284        H287   1.084       .  S
C288        C289   1.415       .  A
C288        C293   1.417       .  A
C289        C290   1.406       .  A
C289        H294   1.083       .  S
C290        C291   1.406       .  A
C291        C292   1.406       .  A
C291        H295   1.085       .  S
C292        C293   1.411       .  A
C292        C312   1.493       .  S
C293        H296   1.083       .  S
O297        C313   1.279       .  A
O297       Zn303   2.026       .  S
C298        C443   1.485       .  S
C298        O314   1.285       .  A
C298        O311   1.267       .  A
O299        C312   1.283       .  A
O299       Cd306   2.104   1_565  S
O300        C318   1.266       .  A
O300       Cd309   2.004       .  S
O301        C315   1.282       .  A
O301       Cd305   2.124       .  S
O302        C313   1.286       .  A
O302       Cd305   2.131       .  S
Zn303       O314   2.108       .  S
Zn303       O316   2.060   1_545  S
Zn303       O308   1.909       .  S
O304        C315   1.266       .  A
O304       Cd309   2.022       .  S
Cd305       O307   2.108       .  S
Cd305       O308   1.986       .  S
Cd306       O310   2.115       .  S
Cd306       O319   2.100       .  S
Cd306       O308   1.977       .  S
O307        C317   1.285       .  A
O308       Cd309   1.931       .  S
Cd309       O311   2.014       .  S
O310        C317   1.286       .  A
C312        O316   1.283       .  A
C315        C330   1.478       .  S
C318        C383   1.483   1_545  S
C318        O319   1.278       .  A
C320        C321   1.407       .  A
C320        C325   1.416       .  A
C320        C463   1.489       .  S
C321        C322   1.401       .  A
C321        H326   1.084       .  S
C322        C323   1.393       .  A
C322        C393   1.477       .  S
C323        C324   1.397       .  A
C323        H327   1.084       .  S
C324        C325   1.414       .  A
C324        C333   1.491       .  S
C325        H328   1.083       .  S
C329        C330   1.400       .  A
C329        C334   1.401       .  A
C329        F336   1.358       .  S
C330        C331   1.411       .  A
C331        C332   1.399       .  A
C331        F338   1.358       .  S
C332        C333   1.405       .  A
C332        F337   1.358       .  S
C333        C334   1.416       .  A
C334        F335   1.358       .  S
C339        C340   1.407       .  A
C339        C344   1.398       .  A
C339        F346   1.357       .  S
C340        C341   1.415       .  A
C341        C342   1.401       .  A
C341        F348   1.358   1_565  S
C342        C343   1.402       .  A
C342        F347   1.358       .  S
C343        C344   1.410       .  A
C344        F345   1.358       .  S
C349        C350   1.410       .  A
C349        C354   1.398       .  A
C349        F356   1.358       .  S
C350        C351   1.403       .  A
C351        C352   1.394       .  A
C351        F358   1.358       .  S
C352        C353   1.415       .  A
C352        F357   1.358       .  S
C353        C354   1.407       .  A
C354        F355   1.358       .  S
C359        C360   1.413       .  A
C359        C364   1.392   1_565  A
C359        F366   1.358       .  S
C360        C361   1.408   1_565  A
C361        C362   1.400       .  A
C361        F368   1.357       .  S
C362        C363   1.408       .  A
C362        F367   1.358       .  S
C363        C364   1.403       .  A
C364        F365   1.359   1_545  S
C369        C370   1.412       .  A
C369        C374   1.400       .  A
C369        F376   1.358       .  S
C370        C371   1.401       .  A
C371        C372   1.401       .  A
C371        F378   1.358       .  S
C372        C373   1.415       .  A
C372        F377   1.359       .  S
C373        C374   1.405       .  A
C374        F375   1.358       .  S
C379        C380   1.402       .  A
C379        C384   1.390       .  A
C379        F386   1.358       .  S
C380        C381   1.408       .  A
C381        C382   1.399       .  A
C381        F388   1.358       .  S
C382        C383   1.408       .  A
C382        F387   1.358       .  S
C383        C384   1.415       .  A
C384        F385   1.359   1_565  S
C389        C390   1.414       .  A
C389        C394   1.391       .  A
C389        F396   1.359       .  S
C390        C391   1.407       .  A
C391        C392   1.399       .  A
C391        F398   1.358       .  S
C392        C393   1.409       .  A
C392        F397   1.358       .  S
C393        C394   1.402       .  A
C394        F395   1.358       .  S
C399        C400   1.413   1_565  A
C399        C404   1.400   1_565  A
C399        F406   1.358       .  S
C400        C401   1.404       .  A
C401        C402   1.397       .  A
C401        F976   1.358       .  S
C402        C403   1.410       .  A
C402        F407   1.359       .  S
C403        C404   1.400       .  A
C404        F405   1.357       .  S
F408        C969   1.358       .  S
C409        C978   1.407       .  A
C409        C982   1.402       .  A
C409        F416   1.358       .  S
C410        C411   1.408       .  A
C410        C977   1.410       .  A
C411        C412   1.397       .  A
C411        F418   1.358       .  S
C412        C413   1.406       .  A
C412        F417   1.358       .  S
C413        C414   1.406       .  A
C414        C977   1.405       .  A
C414        F983   1.358       .  S
F415        C982   1.357       .  S
C419        C420   1.412       .  A
C419        C424   1.399       .  A
C419        F426   1.358       .  S
C420        C421   1.401       .  A
C421        C422   1.401       .  A
C421        F428   1.358       .  S
C422        C423   1.415       .  A
C422        F427   1.358       .  S
C423        C424   1.405       .  A
C424        F993   1.358       .  S
F425        C992   1.358       .  S
C429        C430   1.410       .  A
C429       C1002   1.399       .  A
C429       F1004   1.359       .  S
C430        C431   1.406       .  A
C431        C432   1.405       .  A
C431        F438   1.357   1_545  S
C432        C433   1.410       .  A
C432        F437   1.357   1_545  S
C433       C1002   1.406       .  A
C434        C997   1.399       .  A
C434       C1001   1.406       .  A
C434        F435   1.358   1_556  S
F436        C997   1.359   1_554  S
C439        C440   1.402       .  A
C439        C444   1.398       .  A
C439        F446   1.358       .  S
C440        C441   1.408   1_545  A
C441        C442   1.406       .  A
C441        F448   1.358       .  S
C442        C443   1.408   1_565  A
C442        F447   1.357       .  S
C443        C444   1.412       .  A
C444        F445   1.359       .  S
C449        C450   1.413       .  A
C449        C454   1.398       .  A
C449        F456   1.358       .  S
C450        C451   1.401       .  A
C451        C452   1.400       .  A
C451        F458   1.358       .  S
C452        C453   1.416       .  A
C452        F457   1.358   1_565  S
C453        C454   1.406       .  A
C454        F455   1.357       .  S
C459        C460   1.409       .  A
C459        C464   1.407       .  A
C459        F466   1.357       .  S
C460        C461   1.412       .  A
C461        C462   1.399       .  A
C461        F468   1.359       .  S
C462        C463   1.405       .  A
C462        F467   1.358       .  S
C463        C464   1.408       .  A
C464        F465   1.357       .  S
C469        C470   1.410       .  A
C469        C474   1.404       .  A
C469        F476   1.358   1_565  S
C470        C471   1.406       .  A
C471        C472   1.396       .  A
C471        F478   1.358       .  S
C472        C473   1.407       .  A
C472        F477   1.359       .  S
C473        C474   1.405       .  A
C474        F475   1.358   1_565  S
C479        C480   1.407       .  A
C479        C484   1.397       .  A
C479        F486   1.358       .  S
C480        C481   1.414       .  A
C481        C482   1.392       .  A
C481        F488   1.358   1_565  S
C482        C483   1.403       .  A
C482        F487   1.358       .  S
C483        C484   1.409       .  A
C484        F485   1.358       .  S
C489        C490   1.408       .  A
C489        C494   1.397       .  A
C489        F496   1.358       .  S
C490        C491   1.403       .  A
C491        C492   1.393       .  A
C491        F498   1.358       .  S
C492        C493   1.414       .  A
C492        F497   1.359       .  S
C493        C494   1.407       .  A
C494        F495   1.357       .  S
C499        C500   1.401       .  A
C499        C504   1.400   1_545  A
C499        F506   1.358       .  S
C500        C501   1.411       .  A
C501        C502   1.399       .  A
C501        F508   1.358       .  S
C502        C503   1.406   1_545  A
C502        F507   1.357       .  S
C503        C504   1.416       .  A
C504        F505   1.359       .  S
C509        C510   1.412       .  A
C509        C514   1.400       .  A
C509        F516   1.359       .  S
C510        C511   1.407       .  A
C511        C512   1.405       .  A
C511        F518   1.357       .  S
C512        C513   1.408       .  A
C512        F517   1.357       .  S
C513        C514   1.404       .  A
C514        F515   1.358       .  S
C519        C520   1.407       .  A
C519        C524   1.398       .  A
C519        F526   1.358   1_554  S
C520        C521   1.409       .  A
C521        C522   1.405       .  A
C521        F528   1.357       .  S
C522        C523   1.406       .  A
C522        F527   1.358       .  S
C523        C524   1.407       .  A
C524        F525   1.359   1_554  S
C529        C530   1.409       .  A
C529        C534   1.398       .  A
C529        F536   1.358       .  S
C530        C531   1.403       .  A
C531        C532   1.392       .  A
C531        F538   1.358       .  S
C532        C533   1.414       .  A
C532        F537   1.359       .  S
C533        C534   1.407       .  A
C534        F535   1.358       .  S
C539        C540   1.401   1_565  A
C539        C544   1.393       .  A
C539        F546   1.359       .  S
C540        C541   1.408       .  A
C541        C542   1.399       .  A
C541        F548   1.358       .  S
C542        C543   1.406   1_545  A
C542        F547   1.358       .  S
C543        C544   1.414       .  A
C544        F545   1.358       .  S
C549        C550   1.405       .  A
C549        C554   1.400       .  A
C549       F1124   1.357       .  S
C550        C551   1.416       .  A
C551        C552   1.402       .  A
C551        F558   1.359       .  S
C552        C553   1.402       .  A
C552        F557   1.358       .  S
C553        C554   1.414       .  A
C554        F555   1.358       .  S
F556       C1117   1.358       .  S
C559        C560   1.406       .  A
C559        C564   1.395       .  A
C559        F566   1.359   1_554  S
C560        C561   1.406       .  A
C561        C562   1.403       .  A
C561        F568   1.358   1_565  S
C562        C563   1.411       .  A
C562       F1135   1.358   1_565  S
C563        C564   1.408       .  A
C564        F565   1.358   1_554  S
F567       C1130   1.358   1_545  S
C569        C570   1.417       .  A
C569        C574   1.417       .  A
C569        C639   1.498       .  S
C570        C571   1.407       .  A
C570        H575   1.083       .  S
C571        C572   1.402       .  A
C572        C573   1.404       .  A
C572        H576   1.086       .  S
C573        C574   1.412       .  A
C573        C593   1.491   1_455  S
C574        H577   1.083       .  S
O578        C594   1.280       .  A
O578       Zn584   2.028       .  S
C579       C1128   1.481       .  S
C579        O595   1.284       .  A
C579        O592   1.266       .  A
O580        C593   1.281   1_565  A
O580       Cd587   2.096       .  S
O581        C599   1.266       .  A
O581       Cd590   2.003       .  S
O582        C596   1.280       .  A
O582       Cd586   2.125       .  S
O583        C594   1.284       .  A
O583       Cd586   2.117       .  S
Zn584       O595   2.103       .  S
Zn584       O597   2.056   1_565  S
Zn584       O589   1.908       .  S
O585        C596   1.265       .  A
O585       Cd590   2.020       .  S
Cd586       O588   2.101       .  S
Cd586       O589   1.989       .  S
Cd587       O591   2.102       .  S
Cd587       O600   2.101       .  S
Cd587       O589   1.974       .  S
O588        C598   1.284       .  A
O589       Cd590   1.928       .  S
Cd590       O592   2.013       .  S
O591        C598   1.285       .  A
C593        O597   1.283       .  A
C596       C1121   1.475       .  S
C598        C610   1.491   1_655  S
C599       C1111   1.475       .  S
C599        O600   1.278       .  A
C601        C602   1.413       .  A
C601       C1088   1.488       .  S
C602        C603   1.408       .  A
C602        H607   1.083       .  S
C603       C1118   1.484       .  S
C604        C605   1.393   1_554  A
C604        H608   1.084       .  S
C605        C606   1.399       .  A
C605       C1098   1.475       .  S
C606        H609   1.084       .  S
C610        C611   1.416       .  A
C610        C615   1.414   1_455  A
C611        C612   1.411       .  A
C611        H616   1.083       .  S
C612        C613   1.404       .  A
C612        C634   1.490       .  S
C613        C614   1.404       .  A
C613        H617   1.085       .  S
C614        C615   1.403   1_455  A
C614        C661   1.480   1_455  S
C615        H618   1.084       .  S
O619        C635   1.278       .  A
O619       Zn625   2.014       .  S
C620       C1078   1.487       .  S
C620        O636   1.283       .  A
C620        O633   1.268       .  A
O621        C634   1.281       .  A
O621       Cd628   2.099       .  S
O622        C640   1.265       .  A
O622       Cd631   2.000       .  S
O623        C637   1.282       .  A
O623       Cd627   2.128       .  S
O624        C635   1.287       .  A
O624       Cd627   2.126       .  S
Zn625       O636   2.099       .  S
Zn625       O638   2.051       .  S
Zn625       O630   1.904       .  S
O626        C637   1.266       .  A
O626       Cd631   2.022       .  S
Cd627       O629   2.116       .  S
Cd627       O630   1.983       .  S
Cd628       O632   2.109       .  S
Cd628       O641   2.093       .  S
Cd628       O630   1.970       .  S
O629        C639   1.286       .  A
O630       Cd631   1.928       .  S
Cd631       O633   2.021       .  S
O632        C639   1.286       .  A
C634        O638   1.282       .  A
C635        C653   1.480       .  S
C637       C1068   1.484       .  S
C640       C1061   1.479       .  S
C640        O641   1.278       .  A
C642        C643   1.416       .  A
C642        C647   1.406       .  A
C642       C1038   1.483       .  S
C643        C644   1.412       .  A
C643        H648   1.083       .  S
C644        C645   1.397       .  A
C644       C1071   1.495       .  S
C645        C646   1.395       .  A
C645        H649   1.083       .  S
C646        C647   1.398       .  A
C646       C1051   1.479       .  S
C647        H650   1.083       .  S
C651        C652   1.414       .  A
C651        C656   1.419       .  A
C651        C722   1.494       .  S
C652        C653   1.403       .  A
C652        H657   1.083       .  S
C653        C654   1.402       .  A
C654        C655   1.406       .  A
C654        H658   1.085       .  S
C655        C656   1.412       .  A
C655        C675   1.494   1_455  S
C656        H659   1.084       .  S
O660        C676   1.281       .  A
O660       Zn666   2.104       .  S
C661        O677   1.278       .  A
C661        O674   1.287       .  A
O662        C675   1.282       .  A
O662       Cd669   2.115       .  S
O663        C681   1.286       .  A
O663       Cd672   2.121       .  S
O664        C678   1.265       .  A
O664       Cd668   2.017       .  S
O665        C676   1.266       .  A
O665       Cd668   2.021       .  S
Zn666       O677   2.011       .  S
Zn666       O679   2.036       .  S
Zn666       O671   1.913       .  S
O667        C678   1.283       .  A
O667       Cd672   2.137       .  S
Cd668       O670   1.998       .  S
Cd668       O671   1.926       .  S
Cd669       O673   2.102       .  S
Cd669       O682   2.114       .  S
Cd669       O671   1.978       .  S
O670        C680   1.265       .  A
O671       Cd672   1.991       .  S
Cd672       O674   2.129       .  S
O673        C680   1.280       .  A
C675        O679   1.280       .  A
C676       C1028   1.486       .  S
C678       C1018   1.482       .  S
C680       C1101   1.477       .  S
C681        C692   1.501   1_655  S
C681        O682   1.287       .  A
C683        C684   1.414       .  A
C683        C688   1.404       .  A
C683       C1008   1.484       .  S
C684        C685   1.411       .  A
C684        H689   1.083       .  S
C685        C686   1.398       .  A
C685       C1021   1.490   1_545  S
C686        C687   1.394       .  A
C686        H690   1.085       .  S
C687        C688   1.399       .  A
C687       C1108   1.469       .  S
C688        H691   1.084       .  S
C692        C693   1.420       .  A
C692        C697   1.416   1_455  A
C693        C694   1.416       .  A
C693        H698   1.082       .  S
C694        C695   1.404       .  A
C694        C716   1.495       .  S
C695        C696   1.402       .  A
C695        H699   1.085       .  S
C696        C697   1.406   1_455  A
C697        H700   1.084       .  S
O701        C717   1.285       .  A
O701       Zn707   2.116       .  S
C702        O718   1.280   1_554  A
C702        O715   1.285   1_554  A
O703        C716   1.281       .  A
O703       Cd710   2.098   1_565  S
O704        C722   1.284       .  A
O704       Cd713   2.100       .  S
O705        C719   1.266       .  A
O705       Cd709   2.018       .  S
O706        C717   1.263       .  A
O706       Cd709   2.009       .  S
Zn707       O718   2.024       .  S
Zn707       O720   2.067   1_545  S
Zn707       O712   1.906       .  S
O708        C719   1.281       .  A
O708       Cd713   2.116       .  S
Cd709       O711   2.015       .  S
Cd709       O712   1.925       .  S
Cd710       O714   2.097       .  S
Cd710       O723   2.112       .  S
Cd710       O712   1.962       .  S
O711        C721   1.267       .  A
O712       Cd713   1.979       .  S
Cd713       O715   2.117       .  S
O714        C721   1.280       .  A
C716        O720   1.285       .  A
C717        C998   1.483       .  S
C719        C988   1.473       .  S
C721       C1048   1.482   1_545  S
C722        O723   1.287       .  A
C724        C725   1.412       .  A
C724        C978   1.480       .  S
C725        C726   1.406       .  A
C725        H730   1.084       .  S
C726        C991   1.484       .  S
C727        C728   1.394       .  A
C727        H731   1.084       .  S
C728        C729   1.399       .  A
C728       C1058   1.476       .  S
C729        H732   1.083       .  S
C733        C734   1.417       .  A
C733        C738   1.416       .  A
C733        C804   1.494       .  S
C734        C735   1.408       .  A
C734        H739   1.082       .  S
C735        C736   1.401       .  A
C736        C737   1.402       .  A
C736        H740   1.085       .  S
C737        C738   1.408       .  A
C737        C757   1.487       .  S
C738        H741   1.085       .  S
O742        C758   1.282       .  A
O742       Zn748   2.089       .  S
C743        O759   1.278       .  A
C743        O756   1.285       .  A
O744        C757   1.282       .  A
O744       Cd751   2.100       .  S
O745        C763   1.284       .  A
O745       Cd754   2.101       .  S
O746        C760   1.265       .  A
O746       Cd750   2.023       .  S
O747        C758   1.267       .  A
O747       Cd750   2.016       .  S
Zn748       O759   2.022       .  S
Zn748       O761   2.040       .  S
Zn748       O753   1.909       .  S
O749        C760   1.281       .  A
O749       Cd754   2.120       .  S
Cd750       O752   1.993       .  S
Cd750       O753   1.929       .  S
Cd751       O755   2.104       .  S
Cd751       O764   2.104       .  S
Cd751       O753   1.989       .  S
O752        C762   1.264       .  A
O753       Cd754   1.990       .  S
Cd754       O756   2.126       .  S
O755        C762   1.278       .  A
C757        O761   1.281       .  A
C758       C1091   1.476       .  S
C760        C971   1.478       .  S
C762        C958   1.482       .  S
C763        C774   1.491       .  S
C763        O764   1.285       .  A
C765        C766   1.414       .  A
C765       C1131   1.488       .  S
C766        C767   1.412       .  A
C766        H771   1.083       .  S
C767        C968   1.491       .  S
C768        C769   1.395   1_554  A
C768        H772   1.084       .  S
C769        C770   1.401       .  A
C769        C948   1.482       .  S
C770        H773   1.083       .  S
C774        C775   1.416       .  A
C774        C779   1.414       .  A
C775        C776   1.406       .  A
C775        H780   1.084       .  S
C776        C777   1.404       .  A
C776        C881   1.484       .  S
C777        C778   1.406       .  A
C777        H781   1.085       .  S
C778        C779   1.408       .  A
C778        C798   1.488       .  S
C779        H782   1.083       .  S
O783        C799   1.282       .  A
O783       Zn789   2.091       .  S
C784        C858   1.481       .  S
C784        O800   1.278       .  A
C784        O797   1.285       .  A
O785        C798   1.283   1_565  A
O785       Cd792   2.105       .  S
O786        C804   1.284       .  A
O786       Cd795   2.094       .  S
O787        C801   1.266       .  A
O787       Cd791   2.019       .  S
O788        C799   1.265       .  A
O788       Cd791   2.010       .  S
Zn789       O800   2.020       .  S
Zn789       O802   2.037   1_565  S
Zn789       O794   1.902       .  S
O790        C801   1.281       .  A
O790       Cd795   2.118       .  S
Cd791       O793   2.013       .  S
Cd791       O794   1.924       .  S
Cd792       O796   2.111       .  S
Cd792       O805   2.120       .  S
Cd792       O794   1.970       .  S
O793        C803   1.267       .  A
O794       Cd795   1.981       .  S
Cd795       O797   2.122       .  S
O796        C803   1.280       .  A
C798        O802   1.281       .  A
C799       C1041   1.478       .  S
C801        C938   1.475       .  S
C803        C928   1.485       .  S
C804        O805   1.287       .  A
C806        C807   1.408       .  A
C806        C811   1.413       .  A
C806       C1081   1.487       .  S
C807        C808   1.402       .  A
C807        H812   1.084       .  S
C808        C809   1.395       .  A
C808        C918   1.478       .  S
C809        C810   1.396       .  A
C809        H813   1.084       .  S
C810        C811   1.410       .  A
C810        C941   1.486       .  S
C811        H814   1.083       .  S
C815        C816   1.420       .  A
C815        C820   1.416       .  A
C815        C885   1.498       .  S
C816        C817   1.413       .  A
C816        H821   1.082       .  S
C817        C818   1.404       .  A
C817        C839   1.495       .  S
C818        C819   1.404       .  A
C818        H822   1.085       .  S
C819        C820   1.407       .  A
C820        H823   1.085       .  S
O824        C840   1.278   1_556  A
O824       Zn830   2.016       .  S
C825        C981   1.479       .  S
C825        O841   1.283       .  A
C825        O838   1.267       .  A
O826        C839   1.282       .  A
O826       Cd833   2.107       .  S
O827        C845   1.267       .  A
O827       Cd836   2.018       .  S
O828        C842   1.281       .  A
O828       Cd832   2.122       .  S
O829        C840   1.284   1_556  A
O829       Cd832   2.123       .  S
Zn830       O841   2.085       .  S
Zn830       O843   2.057       .  S
Zn830       O835   1.906       .  S
O831        C842   1.267       .  A
O831       Cd836   2.030       .  S
Cd832       O834   2.095       .  S
Cd832       O835   1.987       .  S
Cd833       O837   2.108       .  S
Cd833       O846   2.102       .  S
Cd833       O835   1.976       .  S
O834        C844   1.284       .  A
O835       Cd836   1.934       .  S
Cd836       O838   2.014       .  S
O837        C844   1.286       .  A
C839        O843   1.283       .  A
C842        C911   1.481       .  S
C844        C856   1.491       .  S
C845        C921   1.485       .  S
C845        O846   1.279       .  A
C847        C848   1.414       .  A
C847       C1001   1.489       .  S
C848        C849   1.413       .  A
C848        H853   1.083       .  S
C849        C908   1.493   1_545  S
C850        C851   1.395       .  A
C850        H854   1.084       .  S
C851        C852   1.401       .  A
C851        C931   1.476       .  S
C852        H855   1.084       .  S
C856        C857   1.415       .  A
C856        C861   1.415       .  A
C857        C858   1.406       .  A
C857        H862   1.083       .  S
C858        C859   1.403       .  A
C859        C860   1.405       .  A
C859        H863   1.086       .  S
C860        C861   1.408       .  A
C860        C880   1.488       .  S
C861        H864   1.083       .  S
O865        C881   1.277       .  A
O865       Zn871   2.014       .  S
C866       C1011   1.477       .  S
C866        O882   1.282       .  A
C866        O879   1.267       .  A
O867        C880   1.283       .  A
O867       Cd874   2.106   1_565  S
O868        C886   1.266       .  A
O868       Cd877   2.005       .  S
O869        C883   1.282       .  A
O869       Cd873   2.127       .  S
O870        C881   1.286       .  A
O870       Cd873   2.133       .  S
Zn871       O882   2.089       .  S
Zn871       O884   2.034   1_545  S
Zn871       O876   1.906       .  S
O872        C883   1.265       .  A
O872       Cd877   2.018       .  S
Cd873       O875   2.104       .  S
Cd873       O876   1.988       .  S
Cd874       O878   2.124       .  S
Cd874       O887   2.113       .  S
Cd874       O876   1.976       .  S
O875        C885   1.284       .  A
O876       Cd877   1.923       .  S
Cd877       O879   2.016       .  S
O878        C885   1.288       .  A
C880        O884   1.280       .  A
C883        C898   1.478       .  S
C886        C951   1.485   1_545  S
C886        O887   1.280       .  A
C888        C889   1.407       .  A
C888        C893   1.418       .  A
C888       C1031   1.494       .  S
C889        C890   1.399       .  A
C889        H894   1.084       .  S
C890        C891   1.391       .  A
C890        C961   1.476       .  S
C891        C892   1.398       .  A
C891        H895   1.084       .  S
C892        C893   1.415       .  A
C892        C901   1.492       .  S
C893        H896   1.083       .  S
C897        C898   1.400       .  A
C897        C902   1.401       .  A
C897        F904   1.358       .  S
C898        C899   1.411       .  A
C899        C900   1.399       .  A
C899        F906   1.359       .  S
C900        C901   1.405       .  A
C900        F905   1.358       .  S
C901        C902   1.416       .  A
C902        F903   1.358       .  S
C907        C908   1.407       .  A
C907        C912   1.397       .  A
C907        F914   1.357       .  S
C908        C909   1.415   1_565  A
C909        C910   1.403   1_545  A
C909        F916   1.358       .  S
C910        C911   1.403       .  A
C910        F915   1.358       .  S
C911        C912   1.410       .  A
C912        F913   1.358       .  S
C917        C918   1.408       .  A
C917        C922   1.399       .  A
C917        F924   1.358       .  S
C918        C919   1.402       .  A
C919        C920   1.393       .  A
C919        F926   1.358       .  S
C920        C921   1.415       .  A
C920        F925   1.358       .  S
C921        C922   1.408       .  A
C922        F923   1.358       .  S
C927        C928   1.415       .  A
C927        C932   1.393   1_565  A
C927        F934   1.358       .  S
C928        C929   1.407   1_565  A
C929        C930   1.400       .  A
C929        F936   1.357       .  S
C930        C931   1.408       .  A
C930        F935   1.358       .  S
C931        C932   1.401       .  A
C932        F933   1.359   1_545  S
C937        C938   1.410       .  A
C937        C942   1.397       .  A
C937        F944   1.359       .  S
C938        C939   1.400       .  A
C939        C940   1.401       .  A
C939        F946   1.358       .  S
C940        C941   1.414       .  A
C940        F945   1.358       .  S
C941        C942   1.405       .  A
C942        F943   1.358       .  S
C947        C948   1.403       .  A
C947        C952   1.392       .  A
C947        F954   1.358       .  S
C948        C949   1.410       .  A
C949        C950   1.399       .  A
C949        F956   1.358       .  S
C950        C951   1.406       .  A
C950        F955   1.357       .  S
C951        C952   1.416       .  A
C952        F953   1.359   1_565  S
C957        C958   1.415       .  A
C957        C962   1.386       .  A
C957        F964   1.359       .  S
C958        C959   1.407       .  A
C959        C960   1.401       .  A
C959        F966   1.358       .  S
C960        C961   1.410       .  A
C960        F965   1.358       .  S
C961        C962   1.400       .  A
C962        F963   1.359       .  S
C967        C968   1.415       .  A
C967        C972   1.401   1_565  A
C967        F974   1.358       .  S
C968        C969   1.406   1_565  A
C969        C970   1.398       .  A
C970        C971   1.410       .  A
C970        F975   1.359       .  S
C971        C972   1.401       .  A
C972        F973   1.358       .  S
C977        F984   1.358       .  S
C978        C979   1.404       .  A
C979        C980   1.396       .  A
C979        F986   1.358   1_556  S
C980        C981   1.411       .  A
C980        F985   1.359       .  S
C981        C982   1.406       .  A
C987        C988   1.410       .  A
C987        C992   1.398       .  A
C987        F994   1.359       .  S
C988        C989   1.400       .  A
C989        C990   1.399       .  A
C989        F996   1.357       .  S
C990        C991   1.412       .  A
C990        F995   1.358       .  S
C991        C992   1.405       .  A
C997        C998   1.411       .  A
C998        C999   1.406       .  A
C999       C1000   1.405       .  A
C999       F1006   1.357   1_545  S
C1000      C1001   1.410       .  A
C1000      F1005   1.357   1_545  S
C1002      F1003   1.358       .  S
C1007      C1008   1.405       .  A
C1007      C1012   1.397       .  A
C1007      F1014   1.358       .  S
C1008      C1009   1.408   1_545  A
C1009      C1010   1.404       .  A
C1009      F1016   1.358       .  S
C1010      C1011   1.406   1_565  A
C1010      F1015   1.358       .  S
C1011      C1012   1.408       .  A
C1012      F1013   1.359       .  S
C1017      C1018   1.412       .  A
C1017      C1022   1.397       .  A
C1017      F1024   1.359       .  S
C1018      C1019   1.402       .  A
C1019      C1020   1.403       .  A
C1019      F1026   1.357       .  S
C1020      C1021   1.414       .  A
C1020      F1025   1.358   1_565  S
C1021      C1022   1.406       .  A
C1022      F1023   1.358       .  S
C1027      C1028   1.409       .  A
C1027      C1032   1.409       .  A
C1027      F1034   1.358       .  S
C1028      C1029   1.408       .  A
C1029      C1030   1.396       .  A
C1029      F1036   1.358       .  S
C1030      C1031   1.408       .  A
C1030      F1035   1.358       .  S
C1031      C1032   1.411       .  A
C1032      F1033   1.358       .  S
C1037      C1038   1.408       .  A
C1037      C1042   1.404       .  A
C1037      F1044   1.358   1_565  S
C1038      C1039   1.404       .  A
C1039      C1040   1.396       .  A
C1039      F1046   1.358       .  S
C1040      C1041   1.409       .  A
C1040      F1045   1.359       .  S
C1041      C1042   1.407       .  A
C1042      F1043   1.358   1_565  S
C1047      C1048   1.406       .  A
C1047      C1052   1.395       .  A
C1047      F1054   1.358       .  S
C1048      C1049   1.414       .  A
C1049      C1050   1.394       .  A
C1049      F1056   1.358   1_565  S
C1050      C1051   1.403       .  A
C1050      F1055   1.358       .  S
C1051      C1052   1.409       .  A
C1052      F1053   1.359       .  S
C1057      C1058   1.408       .  A
C1057      C1062   1.396       .  A
C1057      F1064   1.358       .  S
C1058      C1059   1.402       .  A
C1059      C1060   1.391       .  A
C1059      F1066   1.358       .  S
C1060      C1061   1.415       .  A
C1060      F1065   1.359       .  S
C1061      C1062   1.406       .  A
C1062      F1063   1.358       .  S
C1067      C1068   1.401       .  A
C1067      C1072   1.400   1_545  A
C1067      F1074   1.358       .  S
C1068      C1069   1.414       .  A
C1069      C1070   1.399       .  A
C1069      F1076   1.358       .  S
C1070      C1071   1.405   1_545  A
C1070      F1075   1.357       .  S
C1071      C1072   1.417       .  A
C1072      F1073   1.359       .  S
C1077      C1078   1.411       .  A
C1077      C1082   1.398       .  A
C1077      F1084   1.358       .  S
C1078      C1079   1.409       .  A
C1079      C1080   1.406       .  A
C1079      F1086   1.358       .  S
C1080      C1081   1.409       .  A
C1080      F1085   1.358       .  S
C1081      C1082   1.404       .  A
C1082      F1083   1.358       .  S
C1087      C1088   1.406       .  A
C1087      C1092   1.397       .  A
C1087      F1094   1.358       .  S
C1088      C1089   1.410       .  A
C1089      C1090   1.405       .  A
C1089      F1096   1.358       .  S
C1090      C1091   1.406       .  A
C1090      F1095   1.358       .  S
C1091      C1092   1.407       .  A
C1092      F1093   1.358       .  S
C1097      C1098   1.409       .  A
C1097      C1102   1.397       .  A
C1097      F1104   1.358       .  S
C1098      C1099   1.402       .  A
C1099      C1100   1.391       .  A
C1099      F1106   1.358       .  S
C1100      C1101   1.414       .  A
C1100      F1105   1.359       .  S
C1101      C1102   1.405       .  A
C1102      F1103   1.358       .  S
C1107      C1108   1.402   1_565  A
C1107      C1112   1.388       .  A
C1107      F1114   1.359       .  S
C1108      C1109   1.406       .  A
C1109      C1110   1.400       .  A
C1109      F1116   1.358       .  S
C1110      C1111   1.406   1_545  A
C1110      F1115   1.357       .  S
C1111      C1112   1.410       .  A
C1112      F1113   1.359       .  S
C1117      C1118   1.404       .  A
C1117      C1122   1.396       .  A
C1118      C1119   1.413       .  A
C1119      C1120   1.403       .  A
C1119      F1126   1.358       .  S
C1120      C1121   1.401       .  A
C1120      F1125   1.357       .  S
C1121      C1122   1.409       .  A
C1122      F1123   1.358       .  S
C1127      C1128   1.410       .  A
C1127      C1132   1.397       .  A
C1127      F1134   1.359       .  S
C1128      C1129   1.407       .  A
C1129      C1130   1.405       .  A
C1129      F1136   1.358   1_565  S
C1130      C1131   1.410       .  A
C1131      C1132   1.405       .  A
C1132      F1133   1.358       .  S
