geometry optimzed in LAMMPS
_audit_creation_date              2020-11-30 
_audit_creation_method            'lammps2cif' 
_symmetry_space_group_name_H-M    'P1' 
_symmetry_Int_Tables_number       1 
_symmetry_cell_setting            triclinic 
loop_ 
_symmetry_equiv_pos_as_xyz 
  x,y,z 
_cell_length_a                    31.73346331 
_cell_length_b                    31.711913897861933 
_cell_length_c                    31.789359298132208 
_cell_angle_alpha                 90.14067175816474 
_cell_angle_beta                  89.6539856577835 
_cell_angle_gamma                 90.20925187979057 
loop_ 
_atom_site_label 
_atom_site_type_symbol 
_atom_site_fract_x 
_atom_site_fract_y 
_atom_site_fract_z 
_atom_site_charge 
C1          C  0.77274474  0.70720309  0.77159958     0.80500
N2          N  0.73612488  0.72436574  0.78562247    -0.77800
C3          C  0.72018307  0.75897443  0.76636303     0.83000
N4          N  0.74096235  0.77583076  0.73281538    -0.77700
C5          C  0.77723281  0.75837124  0.71806122     0.83000
N6          N  0.79294766  0.72427478  0.73805789    -0.79500
C7          C  0.26580290  0.75689103  0.30310105     0.80500
N8          N  0.23270170  0.73887403  0.28322099    -0.77800
C9          C  0.22144467  0.75047770  0.24381741     0.83000
N10         N  0.24538260  0.77969955  0.22331692    -0.77700
C11         C  0.28003432  0.79701125  0.24185953     0.83000
N12         N  0.28943072  0.78580096  0.28200878    -0.79500
C13         C  0.74484487  0.72135438  0.23804412     0.80500
N14         N  0.77824741  0.74336604  0.22281213    -0.77800
C15         C  0.79478090  0.77656374  0.24425517     0.83000
N16         N  0.77791196  0.78739580  0.28216085    -0.77700
C17         C  0.74421079  0.76594595  0.29800793     0.83000
N18         N  0.72784693  0.73337275  0.27548994    -0.79500
C19         C  0.26467635  0.26021550  0.21538010     0.80500
N20         N  0.23096871  0.28223248  0.23006955    -0.77800
C21         C  0.21056598  0.27072116  0.26595322     0.83000
N22         N  0.22475126  0.23674590  0.28762851    -0.77700
C23         C  0.25812046  0.21412170  0.27336784     0.83000
N24         N  0.27778777  0.22635245  0.23742044    -0.79500
C25         C  0.79969307  0.23971581  0.26246219     0.80500
N26         N  0.78276553  0.27359265  0.28233726    -0.77800
C27         C  0.74955857  0.29454604  0.26592255     0.83000
N28         N  0.73260601  0.28070200  0.22932344    -0.77700
C29         C  0.74898663  0.24680136  0.20901308     0.83000
N30         N  0.78234136  0.22643054  0.22591783    -0.79500
C31         C  0.72960196  0.23055764  0.74290452     0.80500
N32         N  0.74276133  0.26559327  0.72229832    -0.77800
C33         C  0.77542930  0.28887591  0.73712230     0.83000
N34         N  0.79563048  0.27595773  0.77234787    -0.77700
C35         C  0.78246757  0.24120658  0.79376121     0.83000
N36         N  0.74892435  0.21892078  0.77902044    -0.79500
C37         C  0.22755073  0.74958025  0.71363818     0.80500
N38         N  0.21261450  0.78438559  0.73387703    -0.77800
C39         C  0.23348042  0.80039791  0.76761034     0.83000
N40         N  0.26884473  0.78066566  0.78120748    -0.77700
C41         C  0.28393231  0.74586483  0.76115611     0.83000
N42         N  0.26328136  0.73087959  0.72716231    -0.79500
O43         O  0.06836755  0.10151495  0.17230967    -0.88100
C44         C  0.11848763  0.21854645  0.16905652     0.88000
Mg45       Mg  0.10679008  0.05220518  0.19426292     1.58100
O46         O  0.10229175  0.17264461  0.07089661    -0.87800
O47         O  0.03319187  0.12353453  0.11699866    -0.75100
C48         C  0.28894693  0.08359940  0.09726919     0.93000
O49         O  0.13674135  0.14579331  0.23066823    -0.74900
O50         O  0.27276280  0.05313146  0.11852929    -0.82400
Mg51       Mg  0.06640215  0.15430843  0.21236387     1.58000
C52         C  0.18824234  0.15995775  0.98375210     0.92900
O53         O  0.99327858  0.15857527  0.18818256    -0.80700
H54         H  0.06591166  0.14026348  0.03075920    -0.06000
C55         C  0.21835191  0.16674235  0.12336281     0.87900
O56         O  0.11662967  0.03358108  0.12380797    -0.75200
O57         O  0.09135343  0.19125958  0.16129234    -0.88000
O58         O  0.16198886  0.18718150  0.99858680    -0.80800
C59         C  0.09284471  0.28872717  0.08454314     0.93100
C60         C  0.97886219  0.18406516  0.16028560     0.92900
Mg61       Mg  0.19596893  0.10842770  0.05505200     1.58000
O62         O  0.26535529  0.10556035  0.07411463    -0.80700
O63         O  0.12545054  0.11713435  0.03551459    -0.74900
O64         O  0.06900298  0.26459843  0.10572922    -0.80800
O65         O  0.05137149  0.11477512  0.27244740    -0.82500
O66         O  0.18717816  0.99461525  0.16112244    -0.80800
C67         C  0.09650362  0.14351601  0.04524289     0.87400
O68         O  0.17317655  0.06880087  0.10319647    -0.88000
O69         O  0.19125748  0.15954527  0.09614915    -0.88100
O70         O  0.23053308  0.13828913  0.14893317    -0.75100
Mg71       Mg  0.05198421  0.19431393  0.10918343     1.58000
O72         O  0.11847697  0.27297407  0.05722757    -0.82500
H73         H  0.02913371  0.06389478  0.14018262    -0.06200
O74         O  0.15878154  0.09245430  0.19171295    -0.87800
H75         H  0.19639473  0.12244105  0.23251725    -0.06000
H76         H  0.14186487  0.02952106  0.06494782    -0.06200
C77         C  0.16540065  0.12006070  0.21874202     0.87300
C78         C  0.04305714  0.09490118  0.14335302     0.87900
C79         C  0.14414193  0.04344161  0.09593641     0.88000
H80         H  0.23202962  0.19795629  0.12547608    -0.06200
O81         O  0.14549852  0.23045785  0.14150672    -0.75200
Mg82       Mg  0.21151070  0.06777054  0.15686107     1.58000
H83         H  0.11946390  0.23242121  0.20015127    -0.06200
C84         C  0.08111454  0.09231959  0.28781444     0.92900
O85         O  0.14861319  0.00239900  0.21706331    -0.82500
C86         C  0.15796503  0.98052527  0.18569133     0.93000
O87         O  0.00093804  0.21561098  0.15148482    -0.82400
Mg88       Mg  0.15602713  0.21165282  0.07151224     1.58200
O89         O  0.10293060  0.06984377  0.26332760    -0.80800
O90         O  0.21936836  0.15119382  0.00585223    -0.82500
N91         N  0.09446438  0.33359973  0.09498262    -0.03200
C92         C  0.11537408  0.36334974  0.07211719    -0.00600
C93         C  0.11490275  0.40177111  0.09252276    -0.23500
C94         C  0.09182038  0.39630298  0.12879267    -0.23700
C95         C  0.07869965  0.35462740  0.12978885    -0.00700
H96         H  0.12770650  0.43124788  0.08095795     0.13100
H97         H  0.08241092  0.42113908  0.15025797     0.13100
N98         N  0.09397124  0.09664628  0.33177560    -0.03200
C99         C  0.07475502  0.12228688  0.36028943    -0.00600
C100        C  0.09488577  0.12120280  0.39854334    -0.23500
C101        C  0.12829026  0.09411412  0.39395318    -0.23700
C102        C  0.12745587  0.07888238  0.35309336    -0.00700
H103        H  0.08553011  0.13745077  0.42705861     0.13100
H104        H  0.14977447  0.08489298  0.41856538     0.13100
N105        N  0.33192305  0.09827769  0.10513848    -0.03200
C106        C  0.35947983  0.07995184  0.13205997    -0.00600
C107        C  0.39636063  0.10290841  0.13451415    -0.23500
C108        C  0.39195881  0.13684360  0.10819920    -0.23700
C109        C  0.35266813  0.13352168  0.08978877    -0.00700
H110        H  0.42434459  0.09458755  0.15187400     0.13100
H111        H  0.41636405  0.15955374  0.10058096     0.13100
O112        O  0.82741091  0.59037598  0.34673209    -0.88100
C113        C  0.86553688  0.58708942  0.46591856     0.88000
Mg114      Mg  0.87088895  0.57521189  0.29850471     1.58100
O115        O  0.84834546  0.68746409  0.42674675    -0.87800
O116        O  0.78627136  0.64227835  0.36824920    -0.75100
C117        C  0.04045781  0.68016147  0.35493823     0.93000
O118        O  0.89641333  0.53368666  0.39256732    -0.74900
O119        O  0.03049607  0.65877553  0.32213232    -0.82400
Mg120      Mg  0.82436656  0.54554370  0.39652645     1.58000
C121        C  0.92905932  0.78320483  0.43395067     0.92900
O122        O  0.74921747  0.56084110  0.39868162    -0.80700
H123        H  0.81109725  0.72816129  0.39664482    -0.06000
C124        C  0.96689533  0.64463915  0.42821191     0.87900
O125        O  0.87814504  0.64699434  0.28507771    -0.75200
O126        O  0.83962760  0.59545430  0.43796268    -0.88000
O127        O  0.90242073  0.76248351  0.45685754    -0.80800
C128        C  0.83047776  0.65892541  0.53849283     0.93100
C129        C  0.72642766  0.58471962  0.42258401     0.92900
Mg130      Mg  0.94362246  0.71563793  0.37237354     1.58000
O131        O  0.01305679  0.70211471  0.37357811    -0.80700
O132        O  0.87227958  0.73044066  0.37745688    -0.74900
O133        O  0.80845630  0.64283630  0.50969077    -0.80800
O134        O  0.81983076  0.48605397  0.35345846    -0.82500
O135        O  0.95680494  0.61437359  0.25318115    -0.80800
C136        C  0.84255217  0.71587524  0.40055021     0.87400
O137        O  0.92839010  0.66783818  0.32822378    -0.88000
O138        O  0.93902407  0.67091878  0.42066383    -0.88100
O139        O  0.98240112  0.62096734  0.39957344    -0.75100
Mg140      Mg  0.79750477  0.64629791  0.43977268     1.58000
O141        O  0.85378499  0.69123284  0.53043175    -0.82500
H142        H  0.79125176  0.62334282  0.30737070    -0.06200
O143        O  0.91936450  0.57688599  0.34310399    -0.87800
H144        H  0.95747838  0.53687414  0.37313500    -0.06000
H145        H  0.90050336  0.70716020  0.28779639    -0.06200
C146        C  0.92581600  0.54871747  0.36939875     0.87300
C147        C  0.80115923  0.61839180  0.33944625     0.87900
C148        C  0.90262396  0.67540779  0.29992038     0.88000
H149        H  0.97805141  0.64139680  0.46010585    -0.06200
O150        O  0.89034921  0.61485318  0.48128747    -0.75200
Mg151      Mg  0.97119357  0.61645662  0.32768695     1.58000
H152        H  0.86763141  0.55501201  0.47712721    -0.06200
C153        C  0.85298804  0.47708462  0.33189016     0.92900
O154        O  0.91610961  0.55905052  0.24846429    -0.82500
C155        C  0.93270647  0.59040490  0.23108673     0.93000
O156        O  0.74349188  0.60430520  0.45240808    -0.82400
Mg157      Mg  0.89772248  0.68684890  0.47124697     1.58200
O158        O  0.87132325  0.50562085  0.31122501    -0.80800
O159        O  0.96012265  0.76399188  0.41915792    -0.82500
N160        N  0.68272697  0.59452333  0.41256022    -0.03200
C161        C  0.65851104  0.57361636  0.38422695    -0.00600
C162        C  0.61940830  0.59199573  0.38070933    -0.23500
C163        C  0.61890693  0.62564916  0.40793589    -0.23700
C164        C  0.65760275  0.62674467  0.42779254    -0.00700
H165        H  0.59332819  0.58081246  0.36189784     0.13100
H166        H  0.59194341  0.64535928  0.41480771     0.13100
N167        N  0.91767233  0.60345607  0.18984386    -0.03200
C168        C  0.93576089  0.63421771  0.16597532    -0.00600
C169        C  0.91279887  0.64086204  0.12990227    -0.23500
C170        C  0.87943068  0.61305155  0.13094756    -0.23700
C171        C  0.88281847  0.58965166  0.16747143    -0.00700
H172        H  0.92082097  0.66201434  0.10439901     0.13100
H173        H  0.85695867  0.60814985  0.10591828     0.13100
N174        N  0.92123367  0.82640712  0.42027018    -0.03200
C175        C  0.89528496  0.85365636  0.44060427    -0.00600
C176        C  0.89342425  0.89177092  0.42000420    -0.23500
C177        C  0.91916472  0.88836949  0.38523918    -0.23700
C178        C  0.93670471  0.84843103  0.38575496    -0.00700
H179        H  0.87633933  0.91954462  0.43001406     0.13100
H180        H  0.92620275  0.91338069  0.36315041     0.13100
O181        O  0.16399400  0.95168068  0.42107335    -0.88100
C182        C  0.15933892  0.90496233  0.30275415     0.88000
Mg183      Mg  0.18554872  0.91107657  0.46897875     1.58100
O184        O  0.06103657  0.92226978  0.34927156    -0.87800
O185        O  0.10943302  0.98900923  0.40032630    -0.75100
C186        C  0.08625221  0.73173629  0.43083038     0.93000
O187        O  0.22116746  0.88261492  0.37419628    -0.74900
O188        O  0.10872291  0.74702669  0.46081939    -0.82400
Mg189      Mg  0.20402020  0.95346776  0.36806074     1.58000
C190        C  0.97229035  0.83710074  0.35604520     0.92900
O191        O  0.18234581  0.02695657  0.36509772    -0.80700
H192        H  0.02049973  0.95801286  0.38211865    -0.06000
C193        C  0.11153379  0.80653590  0.35059663     0.87900
O194        O  0.11440202  0.90218632  0.48760123    -0.75200
O195        O  0.15220171  0.93097105  0.33120761    -0.88000
O196        O  0.98697695  0.86423966  0.32965361    -0.80800
C197        C  0.07722039  0.93573407  0.23437247     0.93100
C198        C  0.15538840  0.04301278  0.33972811     0.92900
Mg199      Mg  0.04345590  0.82655188  0.40915531     1.58000
O200        O  0.06269687  0.75616296  0.40997306    -0.80700
O201        O  0.02418233  0.89750744  0.40307002    -0.74900
O202        O  0.09895648  0.95722627  0.25963160    -0.80800
O203        O  0.26329222  0.96606464  0.40840724    -0.82500
O204        O  0.15061669  0.83155390  0.52421634    -0.80800
C205        C  0.03478154  0.92735848  0.37804209     0.87400
O206        O  0.09185554  0.84765127  0.45035024    -0.88000
O207        O  0.08392514  0.83313359  0.35802114    -0.88100
O208        O  0.13662177  0.79388373  0.37912513    -0.75100
Mg209      Mg  0.10123280  0.97210907  0.32938009     1.58000
O210        O  0.04673267  0.91322155  0.24887230    -0.82500
H211        H  0.13290642  0.99087878  0.45974335    -0.06200
O212        O  0.18101493  0.86142828  0.42681282    -0.87800
H213        H  0.22123467  0.82274597  0.39701930    -0.06000
H214        H  0.05448037  0.87908684  0.49057182    -0.06200
C215        C  0.20824060  0.85413805  0.39951800     0.87300
C216        C  0.13565491  0.97766179  0.42846475     0.87900
C217        C  0.08548344  0.87615627  0.47659657     0.88000
H218        H  0.11434929  0.79360259  0.31919046    -0.06200
O219        O  0.13088502  0.87984259  0.28928961    -0.75200
Mg220      Mg  0.14566698  0.80924723  0.44981496     1.58000
H221        H  0.19050288  0.90347073  0.28898508    -0.06200
C222        C  0.27850468  0.93384496  0.42725987     0.92900
O223        O  0.20850224  0.86688912  0.51651008    -0.82500
C224        C  0.17723470  0.85861964  0.53887780     0.93000
O225        O  0.14493539  0.02165003  0.30845671    -0.82400
Mg226      Mg  0.06036318  0.87090647  0.30723568     1.58200
O227        O  0.25468585  0.91215751  0.45062176    -0.80800
O228        O  0.99477190  0.80587208  0.36409770    -0.82500
N229        N  0.09216592  0.68810796  0.41647495    -0.03200
C230        C  0.11570377  0.65837897  0.43636492    -0.00600
C231        C  0.11734452  0.62158026  0.41318533    -0.23500
C232        C  0.09427635  0.62832002  0.37753648    -0.23700
C233        C  0.07812653  0.66872463  0.38021488    -0.00700
H234        H  0.13146708  0.59205015  0.42245765     0.13100
H235        H  0.08638372  0.60454188  0.35437366     0.13100
N236        N  0.31932674  0.91640669  0.41517645    -0.03200
C237        C  0.34382733  0.93171462  0.38360838    -0.00600
C238        C  0.37910997  0.90717443  0.37764002    -0.23500
C239        C  0.37632658  0.87481305  0.40624894    -0.23700
C240        C  0.33976815  0.88091825  0.42945375    -0.00700
H241        H  0.40503323  0.91321430  0.35622843     0.13100
H242        H  0.40028581  0.85132116  0.41178465     0.13100
N243        N  0.09065031  0.93272504  0.19034808    -0.03200
C244        C  0.06978491  0.91032857  0.16036448    -0.00600
C245        C  0.09107830  0.91134891  0.12249360    -0.23500
C246        C  0.12693186  0.93484514  0.12885246    -0.23700
C247        C  0.12644946  0.94828454  0.17035585    -0.00700
H248        H  0.08144328  0.89668007  0.09330753     0.13100
H249        H  0.15013480  0.94279586  0.10504189     0.13100
O250        O  0.66686789  0.45793621  0.92620450    -0.88100
C251        C  0.66670175  0.40721242  0.80252491     0.88000
Mg252      Mg  0.69104646  0.41301490  0.96956664     1.58100
O253        O  0.56801556  0.41667542  0.85093490    -0.87800
O254        O  0.60895723  0.48712699  0.90162835    -0.75100
C255        C  0.59903493  0.22867742  0.92916935     0.93000
O256        O  0.71675887  0.39343581  0.87054810    -0.74900
O257        O  0.62030921  0.24463507  0.95969777    -0.82400
Mg258      Mg  0.69821577  0.46065124  0.87338763     1.58000
C259        C  0.48182619  0.32946532  0.85841808     0.92900
O260        O  0.67451557  0.53173967  0.86551153    -0.80700
H261        H  0.52590869  0.45136930  0.88291437    -0.06000
C262        C  0.62227226  0.30378234  0.85001850     0.87900
O263        O  0.62048544  0.40010325  0.98783524    -0.75200
O264        O  0.65812064  0.43380086  0.83013525    -0.88000
O265        O  0.49586410  0.35674272  0.83183653    -0.80800
C266        C  0.58144452  0.42921656  0.73538395     0.93100
C267        C  0.64757919  0.54630079  0.83856133     0.92900
Mg268      Mg  0.55292420  0.32115332  0.90976728     1.58000
O269        O  0.57400456  0.25195623  0.90897246    -0.80700
O270        O  0.53118040  0.39120162  0.90432449    -0.74900
O271        O  0.60246485  0.45314923  0.75922381    -0.80800
O272        O  0.76743773  0.45023377  0.88857491    -0.82500
O273        O  0.65939421  0.32890908  0.02236943    -0.80800
C274        C  0.54116198  0.42114537  0.87923919     0.87400
O275        O  0.60047644  0.34440117  0.95033631    -0.88000
O276        O  0.59387941  0.32919661  0.85860245    -0.88100
O277        O  0.64862224  0.29159866  0.87752921    -0.75100
Mg278      Mg  0.60277108  0.46937894  0.82951125     1.58000
O279        O  0.55131414  0.40738083  0.75126021    -0.82500
H280        H  0.62796594  0.49194823  0.96262120    -0.06200
O281        O  0.68627922  0.36458817  0.92574252    -0.87800
H282        H  0.72335154  0.33183384  0.88649684    -0.06000
H283        H  0.56183411  0.37398264  0.99078274    -0.06200
C284        C  0.70935801  0.36185591  0.89424953     0.87300
C285        C  0.63447795  0.47920460  0.93172500     0.87900
C286        C  0.59290689  0.37258949  0.97673757     0.88000
H287        H  0.62486347  0.29186295  0.81815596    -0.06200
O288        O  0.63962129  0.37970863  0.79046103    -0.75200
Mg289      Mg  0.65562241  0.30831042  0.94833252     1.58000
H290        H  0.69779567  0.40726391  0.78839337    -0.06200
C291        C  0.78366835  0.42797627  0.91868752     0.92900
O292        O  0.71560488  0.36625441  0.01372163    -0.82500
C293        C  0.68492747  0.35700052  0.03658661     0.93000
O294        O  0.63930950  0.52356610  0.80766960    -0.82400
Mg295      Mg  0.56879935  0.36618781  0.80863762     1.58200
O296        O  0.76100786  0.41642683  0.94964166    -0.80800
O297        O  0.50454615  0.29832675  0.86591866    -0.82500
N298        N  0.59709788  0.42081986  0.69286955    -0.03200
C299        C  0.58141716  0.39099897  0.66643976    -0.00600
C300        C  0.60473812  0.38857155  0.62984318    -0.23500
C301        C  0.63654232  0.41779327  0.63344503    -0.23700
C302        C  0.63133696  0.43772630  0.67191717    -0.00700
H303        H  0.59852215  0.36855857  0.60295363     0.13100
H304        H  0.65933450  0.42569178  0.60922570     0.13100
N305        N  0.60954809  0.18715803  0.91192003    -0.03200
C306        C  0.64251029  0.16346351  0.92497911    -0.00600
C307        C  0.64709901  0.12770665  0.90077103    -0.23500
C308        C  0.61579395  0.12886292  0.87121678    -0.23700
C309        C  0.59237888  0.16492439  0.87872386    -0.00700
H310        H  0.66925816  0.10235143  0.90565475     0.13100
H311        H  0.60867457  0.10403874  0.84890438     0.13100
N312        N  0.82722233  0.41253943  0.91533669    -0.03200
C313        C  0.85721490  0.43137004  0.89122033    -0.00600
C314        C  0.89408321  0.40857447  0.89056456    -0.23500
C315        C  0.88766269  0.37464760  0.91646885    -0.23700
C316        C  0.84702636  0.37763569  0.93241015    -0.00700
H317        H  0.92343435  0.41734729  0.87538284     0.13100
H318        H  0.91158521  0.35235503  0.92582972     0.13100
O319        O  0.82988699  0.43612056  0.16046878    -0.88100
C320        C  0.87348273  0.43069631  0.04182811     0.88000
Mg321      Mg  0.87217685  0.45089174  0.20896442     1.58100
O322        O  0.85051712  0.33206453  0.08533236    -0.87800
O323        O  0.78804938  0.38468085  0.13938322    -0.75100
C324        C  0.04199041  0.34215060  0.15692633     0.93000
O325        O  0.90277509  0.48902633  0.11460254    -0.74900
O326        O  0.03168909  0.36376785  0.18962694    -0.82400
Mg327      Mg  0.83085075  0.47781236  0.10856391     1.58000
C328        C  0.93334866  0.23554838  0.08295698     0.92900
O329        O  0.75510015  0.46228931  0.10516479    -0.80700
H330        H  0.81220781  0.29324967  0.11744543    -0.06000
C331        C  0.96878950  0.37580262  0.08344168     0.87900
O332        O  0.87644695  0.37919052  0.22322080    -0.75200
O333        O  0.84743606  0.42453147  0.07047388    -0.88000
O334        O  0.90634253  0.25494967  0.05980906    -0.80800
C335        C  0.83604112  0.35400478  0.97170980     0.93100
C336        C  0.73557766  0.43762047  0.07934976     0.92900
Mg337      Mg  0.94503494  0.30617267  0.14156787     1.58000
O338        O  0.01481005  0.31926400  0.13926163    -0.80700
O339        O  0.87328096  0.29118040  0.13650863    -0.74900
O340        O  0.81481790  0.37412957  0.99857076    -0.80800
O341        O  0.82666443  0.54015979  0.14884310    -0.82500
O342        O  0.95517262  0.40943494  0.25772516    -0.80800
C343        C  0.84389720  0.30512275  0.11298070     0.87400
O344        O  0.92854169  0.35578061  0.18304771    -0.88000
O345        O  0.94153662  0.34876357  0.09164036    -0.88100
O346        O  0.98422967  0.40010736  0.11153079    -0.75100
Mg347      Mg  0.80270415  0.37592337  0.06835433     1.58000
O348        O  0.85751452  0.32161312  0.98308250    -0.82500
H349        H  0.78924012  0.40717490  0.19929248    -0.06200
O350        O  0.92215422  0.44677383  0.16595662    -0.87800
H351        H  0.96264850  0.48561047  0.13665905    -0.06000
H352        H  0.89556589  0.31809421  0.22164295    -0.06200
C353        C  0.93057906  0.47425885  0.13935244     0.87300
C354        C  0.80183328  0.40966763  0.16772691     0.87900
C355        C  0.90042536  0.34967416  0.20982963     0.88000
H356        H  0.97907452  0.37943662  0.05123932    -0.06200
O357        O  0.89633311  0.40112370  0.02696894    -0.75200
Mg358      Mg  0.97240184  0.40638246  0.18323160     1.58000
H359        H  0.87721541  0.46214467  0.02937477    -0.06200
C360        C  0.85803229  0.54922214  0.17281839     0.92900
O361        O  0.91630461  0.46621276  0.25971934    -0.82500
C362        C  0.93060460  0.43455451  0.27824300     0.93000
O363        O  0.75585547  0.42249666  0.04922969    -0.82400
Mg364      Mg  0.90133674  0.32977799  0.04160748     1.58200
O365        O  0.87454819  0.52061095  0.19466624    -0.80800
O366        O  0.96330175  0.25613038  0.09787314    -0.82500
N367        N  0.69287831  0.42214030  0.08728813    -0.03200
C368        C  0.66503230  0.44094724  0.11377235    -0.00600
C369        C  0.62775634  0.41860790  0.11582680    -0.23500
C370        C  0.63233048  0.38431742  0.08968203    -0.23700
C371        C  0.67211959  0.38676511  0.07172975    -0.00700
H372        H  0.59976169  0.42708827  0.13346188     0.13100
H373        H  0.60826737  0.36103397  0.08293863     0.13100
N374        N  0.91347953  0.42327417  0.31943369    -0.03200
C375        C  0.93031364  0.39369069  0.34499034    -0.00600
C376        C  0.90671465  0.38910882  0.38122986    -0.23500
C377        C  0.87369600  0.41687048  0.37825967    -0.23700
C378        C  0.87797221  0.43785656  0.34031261    -0.00700
H379        H  0.91391552  0.36924548  0.40784670     0.13100
H380        H  0.85047511  0.42302217  0.40256850     0.13100
N381        N  0.92800425  0.19171904  0.09582057    -0.03200
C382        C  0.90432786  0.16296878  0.07480845    -0.00600
C383        C  0.90530368  0.12431444  0.09448713    -0.23500
C384        C  0.93050850  0.12897132  0.12925827    -0.23700
C385        C  0.94479347  0.17031145  0.12988130    -0.00700
H386        H  0.89041019  0.09546620  0.08390003     0.13100
H387        H  0.93919105  0.10409965  0.15075667     0.13100
O388        O  0.35751180  0.17910214  0.93707623    -0.88100
C389        C  0.47655662  0.13554056  0.93723166     0.88000
Mg390      Mg  0.30769122  0.13741786  0.95440838     1.58100
O391        O  0.43557401  0.15561115  0.83835930    -0.87800
O392        O  0.38099789  0.21975321  0.88568928    -0.75100
C393        C  0.36026476  0.96485514  0.84905304     0.93000
O394        O  0.40151508  0.10930009  0.99422784    -0.74900
O395        O  0.32827833  0.97384592  0.87251080    -0.82400
Mg396      Mg  0.40855389  0.18076358  0.97997633     1.58000
C397        C  0.43510682  0.07593112  0.74196346     0.92900
O398        O  0.41362913  0.25528966  0.96136168    -0.80700
H399        H  0.40557272  0.19391754  0.79852365    -0.06000
C400        C  0.43335680  0.03757951  0.88241017     0.87900
O401        O  0.29224504  0.12974562  0.88351692    -0.75200
O402        O  0.44897467  0.16213296  0.92964606    -0.88000
O403        O  0.45978046  0.10041196  0.76314034    -0.80800
C404        C  0.54945003  0.16931904  0.86012005     0.93100
C405        C  0.43983220  0.27551532  0.93747399     0.92900
Mg406      Mg  0.37555250  0.06259208  0.81295918     1.58000
O407        O  0.37679124  0.99328115  0.82673537    -0.80700
O408        O  0.38303501  0.13380673  0.79863591    -0.74900
O409        O  0.52279617  0.19154336  0.87964182    -0.80800
O410        O  0.36569745  0.18942932  0.03928411    -0.82500
O411        O  0.25776203  0.05316513  0.91650861    -0.80800
C412        C  0.40835659  0.16247875  0.81130820     0.87400
O413        O  0.33417221  0.07847031  0.86244261    -0.88000
O414        O  0.42591838  0.06495185  0.85550835    -0.88100
O415        O  0.40494186  0.02342131  0.90731946    -0.75100
Mg416      Mg  0.45260385  0.20481304  0.87964689     1.58000
O417        O  0.53769135  0.14506701  0.82987162    -0.82500
H418        H  0.31989228  0.21817313  0.90541284    -0.06200
O419        O  0.35060028  0.08750625  0.95238397    -0.87800
H420        H  0.37931426  0.04908621  0.99305505    -0.06000
H421        H  0.29302153  0.10629859  0.82389778    -0.06200
C422        C  0.37688915  0.08057689  0.98035574     0.87300
C423        C  0.35139373  0.20611570  0.90956090     0.87900
C424        C  0.30596048  0.10452126  0.85524026     0.88000
H425        H  0.46512646  0.02576099  0.88521660    -0.06200
O426        O  0.49080155  0.11066446  0.90892094    -0.75200
Mg427      Mg  0.33319106  0.03560037  0.91349037     1.58000
H428        H  0.48854364  0.13306807  0.96888647    -0.06200
C429        C  0.34325836  0.15746670  0.05043399     0.92900
O430        O  0.25772608  0.09260497  0.97284722    -0.82500
C431        C  0.23804250  0.07816364  0.94202875     0.93000
O432        O  0.47062761  0.25608248  0.92240813    -0.82400
Mg433      Mg  0.47733823  0.10403402  0.83752708     1.58200
O434        O  0.32110269  0.13842002  0.02364225    -0.80800
O435        O  0.41725814  0.04575399  0.76030811    -0.82500
N436        N  0.42300325  0.08575558  0.69892154    -0.03200
C437        C  0.44491705  0.11162845  0.67257847    -0.00600
C438        C  0.42283371  0.11795715  0.63585006    -0.23500
C439        C  0.38657023  0.09432034  0.63871551    -0.23700
C440        C  0.38715380  0.07386290  0.67709367    -0.00700
H441        H  0.43314854  0.13595012  0.60877383     0.13100
H442        H  0.36381785  0.08989984  0.61384740     0.13100
N443        N  0.43189396  0.31861246  0.92356995    -0.03200
C444        C  0.40485664  0.34517177  0.94328234    -0.00600
C445        C  0.40212130  0.38311161  0.92255685    -0.23500
C446        C  0.42874690  0.38040468  0.88840306    -0.23700
C447        C  0.44700868  0.34077525  0.88901152    -0.00700
H448        H  0.38334540  0.41007069  0.93170315     0.13100
H449        H  0.43502823  0.40533145  0.86600433     0.13100
N450        N  0.19630987  0.09515298  0.93261661    -0.03200
C451        C  0.16905549  0.07796830  0.90445194    -0.00600
C452        C  0.13333177  0.10233888  0.90082145    -0.23500
C453        C  0.13806954  0.13591627  0.92769495    -0.23700
C454        C  0.17647541  0.13134367  0.94750227    -0.00700
H455        H  0.10594809  0.09552118  0.88181698     0.13100
H456        H  0.11489554  0.16022047  0.93358664     0.13100
O457        O  0.64797534  0.68109063  0.57876919    -0.88100
C458        C  0.52930665  0.63677460  0.58311746     0.88000
Mg459      Mg  0.69923628  0.64221111  0.56465176     1.58100
O460        O  0.56988558  0.66476688  0.68070937    -0.87800
O461        O  0.62520617  0.72419593  0.62837986    -0.75100
C462        C  0.65365552  0.47808979  0.68111377     0.93000
O463        O  0.60528791  0.60651562  0.52720078    -0.74900
O464        O  0.68618212  0.48921055  0.65970066    -0.82400
Mg465      Mg  0.59729025  0.67861044  0.53610746     1.58000
C466        C  0.57162022  0.58933811  0.78096943     0.92900
O467        O  0.59494650  0.75351931  0.54976669    -0.80700
H468        H  0.60085231  0.70687516  0.71569653    -0.06000
C469        C  0.57499312  0.54445016  0.64344921     0.87900
O470        O  0.71385870  0.64138508  0.63594877    -0.75200
O471        O  0.55746810  0.66348625  0.58870052    -0.88000
O472        O  0.54630144  0.61309520  0.75991302    -0.80800
C473        C  0.45565913  0.67718756  0.65781124     0.93100
C474        C  0.57085065  0.77441088  0.57492613     0.92900
Mg475      Mg  0.63136984  0.57547460  0.71098918     1.58000
O476        O  0.63309611  0.50522938  0.70159175    -0.80700
O477        O  0.62288427  0.64713067  0.72172643    -0.74900
O478        O  0.48407323  0.69675853  0.63790455    -0.80800
O479        O  0.63885632  0.68355874  0.47555397    -0.82500
O480        O  0.75041182  0.56229692  0.60719974    -0.80800
C481        C  0.59753549  0.67425074  0.70655871     0.87400
O482        O  0.67283079  0.59084483  0.66057701    -0.88000
O483        O  0.58099192  0.57394135  0.66860026    -0.88100
O484        O  0.60449309  0.52951073  0.62030770    -0.75100
Mg485      Mg  0.55398708  0.71004581  0.63563087     1.58000
O486        O  0.46574730  0.65362927  0.68917885    -0.82500
H487        H  0.68591292  0.72202806  0.60796598    -0.06200
O488        O  0.65811455  0.59032303  0.56917144    -0.87800
H489        H  0.62967007  0.54756040  0.53237817    -0.06000
H490        H  0.71108276  0.62468008  0.69759795    -0.06200
C491        C  0.63137647  0.58010444  0.54248069     0.87300
C492        C  0.65434637  0.70970617  0.60468626     0.87900
C493        C  0.69971205  0.61884043  0.66612486     0.88000
H494        H  0.54370034  0.53113763  0.64086445    -0.06200
O495        O  0.51459953  0.61441800  0.61320161    -0.75200
Mg496      Mg  0.67620440  0.54396462  0.61297369     1.58000
H497        H  0.51712708  0.63204277  0.55175933    -0.06200
C498        C  0.66342748  0.65261017  0.46692591     0.92900
O499        O  0.75403366  0.60219607  0.55084620    -0.82500
C500        C  0.77209195  0.58533953  0.58152039     0.93000
O501        O  0.53790326  0.75684547  0.58787630    -0.82400
Mg502      Mg  0.52818157  0.61275841  0.68485802     1.58200
O503        O  0.68583448  0.63691929  0.49545537    -0.80800
O504        O  0.58828693  0.55882467  0.76249284    -0.82500
N505        N  0.58624118  0.81248644  0.59593489    -0.03200
C506        C  0.61934920  0.83559624  0.58157429    -0.00600
C507        C  0.62913797  0.86776196  0.60914086    -0.23500
C508        C  0.60082664  0.86491140  0.64199868    -0.23700
C509        C  0.57432569  0.83113360  0.63364470    -0.00700
H510        H  0.65329465  0.89159813  0.60505236     0.13100
H511        H  0.59839889  0.88671142  0.66814905     0.13100
N512        N  0.58524686  0.59958332  0.82375786    -0.03200
C513        C  0.56596307  0.62890740  0.84849716    -0.00600
C514        C  0.58596595  0.63227487  0.88675916    -0.23500
C515        C  0.61923955  0.60437786  0.88594959    -0.23700
C516        C  0.61878570  0.58396484  0.84738391    -0.00700
H517        H  0.57679624  0.65228084  0.91285021     0.13100
H518        H  0.64049792  0.59829180  0.91170707     0.13100
N519        N  0.81560116  0.59707898  0.59032973    -0.03200
C520        C  0.84169622  0.57570290  0.61633167    -0.00600
C521        C  0.88028718  0.59553780  0.61915364    -0.23500
C522        C  0.87838607  0.63063737  0.59396823    -0.23700
C523        C  0.83876373  0.63131660  0.57599801    -0.00700
H524        H  0.90749859  0.58464093  0.63630155     0.13100
H525        H  0.90439090  0.65173218  0.58703403     0.13100
O526        O  0.34341093  0.83041032  0.58279917    -0.88100
C527        C  0.46392785  0.86748155  0.58731422     0.88000
Mg528      Mg  0.29758699  0.87568765  0.56722712     1.58100
O529        O  0.42256114  0.84244203  0.68536930    -0.87800
O530        O  0.36234313  0.78656054  0.63325276    -0.75100
C531        C  0.35858430  0.03651793  0.68476059     0.93000
O532        O  0.39405252  0.90061870  0.52953653    -0.74900
O533        O  0.32635398  0.02955606  0.66131361    -0.82400
Mg534      Mg  0.39507086  0.82837674  0.54025172     1.58000
C535        C  0.42782244  0.91776477  0.78829263     0.92900
O536        O  0.39195671  0.75353539  0.55463358    -0.80700
H537        H  0.38862287  0.80336648  0.72111160    -0.06000
C538        C  0.42876464  0.96249011  0.64855871     0.87900
O539        O  0.28133896  0.88036158  0.63830560    -0.75200
O540        O  0.43440904  0.84223910  0.59309452    -0.88000
O541        O  0.45136629  0.89310150  0.76566174    -0.80800
C542        C  0.53415706  0.82490141  0.65826044     0.93100
C543        C  0.41512400  0.73207026  0.57974838     0.92900
Mg544      Mg  0.36745522  0.93639389  0.71534477     1.58000
O545        O  0.37354178  0.00686602  0.70633658    -0.80700
O546        O  0.37017714  0.86449573  0.72522830    -0.74900
O547        O  0.50477431  0.80584530  0.63972182    -0.80800
O548        O  0.35404166  0.82551989  0.47977309    -0.82500
O549        O  0.25289769  0.95867561  0.60953770    -0.80800
C550        C  0.39405653  0.83539945  0.71120937     0.87400
O551        O  0.32725460  0.92587020  0.66345038    -0.88000
O552        O  0.41940226  0.93462642  0.67454927    -0.88100
O553        O  0.40169221  0.97905231  0.62401340    -0.75100
Mg554      Mg  0.43492278  0.79585985  0.63989303     1.58000
O555        O  0.52615853  0.84631184  0.69183758    -0.82500
H556        H  0.30217646  0.79278200  0.61254192    -0.06200
O557        O  0.34400844  0.92248079  0.57260061    -0.87800
H558        H  0.37581548  0.96183645  0.53463640    -0.06000
H559        H  0.28273893  0.89903167  0.69950642    -0.06200
C560        C  0.37113563  0.92976670  0.54519493     0.87300
C561        C  0.33458251  0.80286911  0.60928131     0.87900
C562        C  0.29666231  0.90191160  0.66854525     0.88000
H563        H  0.46125861  0.97243880  0.64603672    -0.06200
O564        O  0.48005802  0.88884021  0.61733518    -0.75200
Mg565      Mg  0.32940424  0.97177089  0.61553807     1.58000
H566        H  0.47618259  0.87173093  0.55579463    -0.06200
C567        C  0.33259131  0.85828901  0.47010255     0.92900
O568        O  0.25082878  0.92333075  0.55046589    -0.82500
C569        C  0.23181169  0.93697217  0.58217232     0.93000
O570        O  0.44884049  0.74853950  0.59151886    -0.82400
Mg571      Mg  0.46782707  0.89142363  0.68948208     1.58200
O572        O  0.31193461  0.87752585  0.49805387    -0.80800
O573        O  0.40716896  0.94644308  0.77072210    -0.82500
N574        N  0.39772574  0.69629566  0.60317369    -0.03200
C575        C  0.36034315  0.67767636  0.59371442    -0.00600
C576        C  0.34978296  0.64753003  0.62315683    -0.23500
C577        C  0.38227650  0.64661389  0.65175208    -0.23700
C578        C  0.41199846  0.67616632  0.63904743    -0.00700
H579        H  0.32265424  0.62676887  0.62254927     0.13100
H580        H  0.38509263  0.62473581  0.67765383     0.13100
N581        N  0.18844107  0.92305003  0.58991604    -0.03200
C582        C  0.16188444  0.94260896  0.61711982    -0.00600
C583        C  0.12373862  0.92185088  0.61964910    -0.23500
C584        C  0.12629170  0.88787476  0.59274579    -0.23700
C585        C  0.16592790  0.88873359  0.57426071    -0.00700
H586        H  0.09659430  0.93107986  0.63821563     0.13100
H587        H  0.10118497  0.86566228  0.58620151     0.13100
N588        N  0.42094111  0.91164452  0.83349571    -0.03200
C589        C  0.44547842  0.88902270  0.86049879    -0.00600
C590        C  0.42842198  0.89040783  0.90063793    -0.23500
C591        C  0.39201532  0.91343807  0.89872459    -0.23700
C592        C  0.38800745  0.92735941  0.85784127    -0.00700
H593        H  0.44235775  0.87843395  0.92915680     0.13100
H594        H  0.37307758  0.92301190  0.92550396     0.13100
C595        C  0.25087178  0.21591521  0.75072639     0.80500
N596        N  0.22945088  0.23428779  0.78301477    -0.77800
C597        C  0.24372630  0.27091328  0.80008480     0.83000
N598        N  0.27996136  0.28854320  0.78558499    -0.77700
C599        C  0.30211141  0.27008822  0.75394676     0.83000
N600        N  0.28684110  0.23421411  0.73626525    -0.79500
C601        C  0.24837280  0.10724010  0.69987370    -0.11100
C602        C  0.20504915  0.10061214  0.69553742     0.15400
C603        C  0.17663048  0.13172974  0.70986653     0.02300
C604        C  0.19237105  0.16883104  0.72805523    -0.15400
C605        C  0.23593755  0.17562273  0.73233130    -0.10300
C606        C  0.26411999  0.14399684  0.71821407     0.09100
C607        C  0.19116481  0.06075620  0.67581465     0.10100
S608        S  0.12019578  0.12627279  0.70562935    -0.24600
H609        H  0.17039149  0.19276401  0.73858401     0.20400
S610        S  0.32038702  0.14741618  0.72407178    -0.30300
H611        H  0.27014115  0.08326418  0.68915811     0.10700
C612        C  0.17855843  0.05918808  0.63344041     0.03900
C613        C  0.16844951  0.02013357  0.61528590    -0.12600
C614        C  0.17115148  0.98276244  0.63862789    -0.08300
C615        C  0.18417717  0.98433237  0.68090312     0.07300
C616        C  0.19391870  0.02334653  0.69908722    -0.13300
S617        S  0.17706795  0.10662291  0.60214012    -0.30300
H618        H  0.15902009  0.01845780  0.58263617     0.11600
S619        S  0.19002283  0.93777190  0.71279131    -0.27400
H620        H  0.20478608  0.02454472  0.73129696     0.08800
H621        H  0.31795425  0.16525477  0.76454063     0.27200
H622        H  0.16392666  0.08735114  0.56451124     0.22000
H623        H  0.19936081  0.90953341  0.67999299     0.27400
H624        H  0.11885614  0.08199617  0.70612675     0.16200
C625        C  0.50081069  0.31710070  0.71405508    -0.11100
C626        C  0.46373032  0.33232994  0.69572315     0.15400
C627        C  0.46614901  0.36489130  0.66553301     0.02300
C628        C  0.50546412  0.38149750  0.65443113    -0.15400
C629        C  0.54225777  0.36705418  0.67359043    -0.10300
C630        C  0.54009373  0.33384118  0.70276119     0.09100
C631        C  0.42290793  0.31530244  0.71031725     0.10100
S632        S  0.42033252  0.38806714  0.64157905    -0.24600
H633        H  0.50720387  0.40741687  0.63230775     0.20400
S634        S  0.58652859  0.31398401  0.72801485    -0.30300
H635        H  0.49908126  0.29226415  0.73737631     0.10700
C636        C  0.39797363  0.28910162  0.68475925     0.03900
C637        C  0.35861806  0.27540299  0.69965421    -0.12600
C638        C  0.34360603  0.28708655  0.73982785    -0.08300
C639        C  0.36937127  0.31303930  0.76556727     0.07300
C640        C  0.40860866  0.32668108  0.75043596    -0.13300
S641        S  0.41659374  0.27252041  0.63353085    -0.30300
H642        H  0.33944624  0.25544700  0.67974813     0.11600
S643        S  0.35494202  0.32765160  0.81861306    -0.27400
H644        H  0.42845533  0.34633585  0.77005781     0.08800
H645        H  0.61186506  0.31676611  0.69171958     0.27200
H646        H  0.38118263  0.24806859  0.62275812     0.22000
H647        H  0.37798215  0.36559500  0.81874219     0.27400
H648        H  0.39301371  0.38272761  0.67612141     0.16200
C649        C  0.18532783  0.34495821  0.87369302    -0.11100
C650        C  0.18902149  0.32318391  0.91180697     0.15400
C651        C  0.21021371  0.28414920  0.91263828     0.02300
C652        C  0.22651491  0.26732464  0.87533936    -0.15400
C653        C  0.22284204  0.28897388  0.83723171    -0.10300
C654        C  0.20239041  0.32843106  0.83641274     0.09100
C655        C  0.16894186  0.34043898  0.95004362     0.10100
S656        S  0.22021845  0.25565397  0.96054113    -0.24600
H657        H  0.24324304  0.23758569  0.87623163     0.20400
S658        S  0.19708820  0.35910729  0.78905175    -0.30300
H659        H  0.16905401  0.37493169  0.87303466     0.10700
C660        C  0.19214777  0.36255647  0.98066111     0.03900
C661        C  0.17388605  0.37024875  0.02020560    -0.12600
C662        C  0.13239483  0.35756176  0.02895669    -0.08300
C663        C  0.10758397  0.34070638  0.99603246     0.07300
C664        C  0.12648084  0.33094342  0.95749545    -0.13300
S665        S  0.24470601  0.38106580  0.96930756    -0.30300
H666        H  0.19207388  0.38550529  0.04458417     0.11600
S667        S  0.05165474  0.33198943  0.00085885    -0.27400
H668        H  0.10813490  0.31542636  0.93328301     0.08800
H669        H  0.19798881  0.32500056  0.76074896     0.27200
H670        H  0.24936635  0.40570861  0.00581322     0.22000
H671        H  0.04565666  0.36668819  0.02766724     0.27400
H672        H  0.18518395  0.26962760  0.98373071     0.16200
C673        C  0.17776012  0.74162078  0.60590639    -0.11100
C674        C  0.17343849  0.69781392  0.60187691     0.15400
C675        C  0.18575488  0.67130626  0.63502631     0.02300
C676        C  0.20285450  0.68919367  0.67131585    -0.15400
C677        C  0.20728919  0.73308882  0.67548397    -0.10300
C678        C  0.19490261  0.75950416  0.64212048     0.09100
C679        C  0.15742269  0.68116208  0.56187301     0.10100
S680        S  0.18054077  0.61469763  0.63287358    -0.24600
H681        H  0.21258221  0.66867921  0.69666457     0.20400
S682        S  0.20285023  0.81569160  0.64246791    -0.30300
H683        H  0.16882846  0.76190174  0.58006940     0.10700
C684        C  0.11480716  0.68574266  0.55125018     0.03900
C685        C  0.10190386  0.67532170  0.51066607    -0.12600
C686        C  0.13108573  0.66206792  0.48002901    -0.08300
C687        C  0.17285314  0.65273059  0.49229717     0.07300
C688        C  0.18568372  0.66303683  0.53307598    -0.13300
S689        S  0.07711963  0.70569915  0.58911914    -0.30300
H690        H  0.06922002  0.67947298  0.50200903     0.11600
S691        S  0.21106661  0.62712487  0.45871515    -0.27400
H692        H  0.21820086  0.65814024  0.54206042     0.08800
H693        H  0.24201283  0.81391174  0.66273695     0.27200
H694        H  0.04142404  0.70256346  0.56325318     0.22000
H695        H  0.19697362  0.64410356  0.42070200     0.27400
H696        H  0.14514637  0.61381609  0.60650551     0.16200
C697        C  0.17099446  0.99042789  0.82249364    -0.11100
C698        C  0.17872343  0.95515888  0.84776718     0.15400
C699        C  0.18262067  0.96043749  0.89164642     0.02300
C700        C  0.17975912  0.00080872  0.90913401    -0.15400
C701        C  0.17380533  0.03638141  0.88370997    -0.10300
C702        C  0.16907760  0.03097366  0.83987467     0.09100
C703        C  0.19096151  0.91525488  0.82707425     0.10100
S704        S  0.19256316  0.91703023  0.92672775    -0.24600
H705        H  0.18226943  0.00454030  0.94292926     0.20400
S706        S  0.16299249  0.07464879  0.80431218    -0.30300
H707        H  0.16863327  0.98659374  0.78877987     0.10700
C708        C  0.16154786  0.88655973  0.81023853     0.03900
C709        C  0.17604517  0.84937412  0.79067271    -0.12600
C710        C  0.21944771  0.84053428  0.78760597    -0.08300
C711        C  0.24847160  0.87050890  0.80377332     0.07300
C712        C  0.23393249  0.90682381  0.82366728    -0.13300
S713        S  0.10584409  0.89704400  0.81446525    -0.30300
H714        H  0.15355507  0.82693697  0.77818129     0.11600
S715        S  0.30454451  0.86666254  0.79761741    -0.27400
H716        H  0.25649924  0.92948111  0.83580827     0.08800
H717        H  0.18839468  0.10287369  0.82720426     0.27200
H718        H  0.09213671  0.85952974  0.79511442     0.22000
H719        H  0.30130338  0.85010775  0.75677623     0.27400
H720        H  0.17319086  0.88588041  0.90186500     0.16200
C721        C  0.48803986  0.70107283  0.79423846    -0.11100
C722        C  0.44913898  0.68479319  0.80838919     0.15400
C723        C  0.44954383  0.65255622  0.83929885     0.02300
C724        C  0.48793312  0.63512887  0.85207841    -0.15400
C725        C  0.52644787  0.65150824  0.83775383    -0.10300
C726        C  0.52619991  0.68686471  0.81101765     0.09100
C727        C  0.40858642  0.70146177  0.79129927     0.10100
S728        S  0.40236098  0.63287193  0.86455653    -0.24600
H729        H  0.48779799  0.60883178  0.87378884     0.20400
S730        S  0.57347831  0.71543510  0.79808291    -0.30300
H731        H  0.48891498  0.72544874  0.77048065     0.10700
C732        C  0.39791272  0.74462655  0.79354432     0.03900
C733        C  0.35657709  0.75719250  0.78562791    -0.12600
C734        C  0.32574746  0.72858055  0.77233783    -0.08300
C735        C  0.33717170  0.68582156  0.76655792     0.07300
C736        C  0.37834290  0.67292906  0.77576255    -0.13300
S737        S  0.43651911  0.78482275  0.80406064    -0.30300
H738        H  0.34872166  0.79017414  0.78805511     0.11600
S739        S  0.30049668  0.64566104  0.74994494    -0.27400
H740        H  0.38643936  0.63991909  0.77237683     0.08800
H741        H  0.59520794  0.70588814  0.83521641     0.27200
H742        H  0.40886581  0.81925964  0.80717785     0.22000
H743        H  0.26621957  0.66198711  0.77297449     0.27400
H744        H  0.38107788  0.67172221  0.86457616     0.16200
C745        C  0.64656248  0.17152097  0.68046893    -0.11100
C746        C  0.61061792  0.17951161  0.70513229     0.15400
C747        C  0.61457902  0.20337968  0.74249872     0.02300
C748        C  0.65434832  0.21751091  0.75488545    -0.15400
C749        C  0.69014007  0.21000025  0.73013867    -0.10300
C750        C  0.68620800  0.18704147  0.69227987     0.09100
C751        C  0.56967919  0.16153579  0.69213842     0.10100
S752        S  0.57033942  0.21927018  0.77468903    -0.24600
H753        H  0.65732687  0.23581123  0.78358576     0.20400
S754        S  0.73031008  0.17675238  0.65776957    -0.30300
H755        H  0.64360446  0.15336693  0.65169530     0.10700
C756        C  0.53814060  0.18659020  0.67400216     0.03900
C757        C  0.49742288  0.16999260  0.66911330    -0.12600
C758        C  0.48846429  0.12776738  0.67917019    -0.08300
C759        C  0.52202477  0.10130690  0.69182372     0.07300
C760        C  0.56155559  0.11891799  0.70013449    -0.13300
S761        S  0.55040039  0.23889772  0.65562148    -0.30300
H762        H  0.47257833  0.18978382  0.65701449     0.11600
S763        S  0.51777237  0.04466757  0.69490093    -0.27400
H764        H  0.58647263  0.09909610  0.71216080     0.08800
H765        H  0.76162403  0.17860379  0.68880747     0.27200
H766        H  0.50983543  0.24884912  0.64129719     0.22000
H767        H  0.48830355  0.04117308  0.66227321     0.27400
H768        H  0.54041600  0.19004760  0.76041214     0.16200
C769        C  0.84199748  0.24368081  0.89814104    -0.11100
C770        C  0.83690042  0.20197793  0.91161531     0.15400
C771        C  0.81446386  0.17325109  0.88622464     0.02300
C772        C  0.79836504  0.18662745  0.84760289    -0.15400
C773        C  0.80254468  0.22874012  0.83413705    -0.10300
C774        C  0.82455395  0.25759870  0.86033155     0.09100
C775        C  0.85385746  0.19001875  0.95312192     0.10100
S776        S  0.80426749  0.11952725  0.90189176    -0.24600
H777        H  0.78152825  0.16398070  0.82838030     0.20400
S778        S  0.82968343  0.31301260  0.84909088    -0.30300
H779        H  0.85880004  0.26589865  0.91788173     0.10700
C780        C  0.89135071  0.16676005  0.95702900     0.03900
C781        C  0.90645292  0.15714706  0.99728422    -0.12600
C782        C  0.88457164  0.17014511  0.03351518    -0.08300
C783        C  0.84643180  0.19230189  0.02941372     0.07300
C784        C  0.83203333  0.20285273  0.98934518    -0.13300
S785        S  0.92074153  0.15094122  0.91086284    -0.30300
H786        H  0.93589184  0.14036210  0.00069483     0.11600
S787        S  0.81599263  0.20958014  0.07408309    -0.27400
H788        H  0.80360200  0.22120099  0.98617763     0.08800
H789        H  0.78652207  0.31840081  0.84092312     0.27200
H790        H  0.95314167  0.12987575  0.93219653     0.22000
H791        H  0.82816996  0.17712456  0.10139501     0.27400
H792        H  0.80078983  0.12779178  0.94523302     0.16200
C793        C  0.76621373  0.39679262  0.68550661    -0.11100
C794        C  0.80807979  0.41079266  0.68612465     0.15400
C795        C  0.83920779  0.38480706  0.70423755     0.02300
C796        C  0.82799018  0.34477169  0.71932006    -0.15400
C797        C  0.78607962  0.33033560  0.71806235    -0.10300
C798        C  0.75475442  0.35739367  0.70180100     0.09100
C799        C  0.81757789  0.45286107  0.66803320     0.10100
S800        S  0.89343843  0.40100641  0.71015839    -0.24600
H801        H  0.85214700  0.32498627  0.73282744     0.20400
S802        S  0.69950549  0.34413151  0.70364887    -0.30300
H803        H  0.74221406  0.41697065  0.67228912     0.10700
C804        C  0.84153111  0.45752203  0.63077674     0.03900
C805        C  0.84907603  0.49807414  0.61472399    -0.12600
C806        C  0.83291157  0.53392881  0.63497547    -0.08300
C807        C  0.80898745  0.52920812  0.67205077     0.07300
C808        C  0.80083597  0.48878833  0.68780104    -0.13300
S809        S  0.86092522  0.41188579  0.60268896    -0.30300
H810        H  0.86721870  0.50199166  0.58603005     0.11600
S811        S  0.78827363  0.57373440  0.70036376    -0.27400
H812        H  0.78212019  0.48534709  0.71623275     0.08800
H813        H  0.68606426  0.38588568  0.70906642     0.27200
H814        H  0.88273511  0.43404075  0.57100167     0.22000
H815        H  0.82195223  0.60131634  0.69168528     0.27400
H816        H  0.88612682  0.44462168  0.71048381     0.16200
C817        C  0.70380523  0.24742698  0.09852914    -0.11100
C818        C  0.70753560  0.20483196  0.08753502     0.15400
C819        C  0.72510379  0.17624741  0.11644502     0.02300
C820        C  0.73667782  0.19055667  0.15630648    -0.15400
C821        C  0.73273930  0.23323788  0.16763259    -0.10300
C822        C  0.71665151  0.26206351  0.13792384     0.09100
C823        C  0.69287868  0.19144685  0.04563251     0.10100
S824        S  0.73601287  0.12188986  0.10356794    -0.24600
H825        H  0.74996556  0.16824885  0.17828127     0.20400
S826        S  0.71397878  0.31793678  0.14783432    -0.30300
H827        H  0.69082414  0.26942993  0.07611038     0.10700
C828        C  0.65855592  0.16356423  0.04111409     0.03900
C829        C  0.64514496  0.15261075  0.00077028    -0.12600
C830        C  0.66444701  0.16994117  0.96500527    -0.08300
C831        C  0.69870912  0.19796076  0.96939889     0.07300
C832        C  0.71234031  0.20866513  0.00978075    -0.13300
S833        S  0.62918724  0.14517242  0.08643075    -0.30300
H834        H  0.61786528  0.13235262  0.99694125     0.11600
S835        S  0.72333468  0.22398826  0.92524727    -0.27400
H836        H  0.73748575  0.23148449  0.01349121     0.08800
H837        H  0.72794602  0.32865787  0.10719921     0.27200
H838        H  0.60188541  0.11791767  0.06458871     0.22000
H839        H  0.71324740  0.19314054  0.89510713     0.27400
H840        H  0.74355332  0.12861007  0.06046346     0.16200
C841        C  0.90472656  0.18207168  0.27195359    -0.11100
C842        C  0.91476369  0.19064327  0.31389761     0.15400
C843        C  0.88625632  0.21339099  0.33925513     0.02300
C844        C  0.84843313  0.22735189  0.32199177    -0.15400
C845        C  0.83846971  0.21997524  0.27946440    -0.10300
C846        C  0.86701306  0.19624000  0.25435922     0.09100
C847        C  0.95548719  0.17551706  0.32987813     0.10100
S848        S  0.89703960  0.22710670  0.39325089    -0.24600
H849        H  0.82710120  0.24514697  0.34191423     0.20400
S850        S  0.85824011  0.18510674  0.19937595    -0.30300
H851        H  0.92701609  0.16475054  0.25265225     0.10700
C852        C  0.95796094  0.13959128  0.35563198     0.03900
C853        C  0.99760570  0.12451267  0.36736404    -0.12600
C854        C  0.03462276  0.14443029  0.35339910    -0.08300
C855        C  0.03201423  0.18127961  0.32877917     0.10500
C856        C  0.99246135  0.19604946  0.31676592    -0.13300
S857        S  0.91082980  0.11132741  0.37099826    -0.30300
H858        H  0.99995922  0.09593568  0.38577516     0.11600
S859        S  0.07790879  0.20800768  0.30834894    -0.27400
H860        H  0.99039380  0.22306261  0.29616545     0.08800
H861        H  0.88107346  0.14720167  0.19917809     0.27200
H862        H  0.93103986  0.07909010  0.39342431     0.22000
H863        H  0.10412137  0.19796013  0.34230871     0.27400
H864        H  0.94095169  0.23089600  0.38845498     0.16200
C865        C  0.74374434  0.39835610  0.32608526    -0.11100
C866        C  0.70249078  0.41087595  0.31758135     0.15400
C867        C  0.67607779  0.38437132  0.29358131     0.02300
C868        C  0.69188750  0.34618499  0.27812955    -0.15400
C869        C  0.73371471  0.33385973  0.28574307    -0.10300
C870        C  0.75967240  0.36036433  0.31054972     0.09100
C871        C  0.68887067  0.45236166  0.33349131     0.10100
S872        S  0.62245735  0.39778134  0.28068536    -0.24600
H873        H  0.67144161  0.32626454  0.25940730     0.20400
S874        S  0.81408452  0.34885791  0.32114293    -0.30300
H875        H  0.76399367  0.41888317  0.34438040     0.10700
C876        C  0.66215314  0.45610514  0.36877641     0.03900
C877        C  0.65242195  0.49632536  0.38423192    -0.12600
C878        C  0.66883810  0.53266190  0.36498885    -0.08300
C879        C  0.69456892  0.52883081  0.32894594     0.07300
C880        C  0.70503808  0.48870519  0.31411334    -0.13300
S881        S  0.64200550  0.40975414  0.39509959    -0.30300
H882        H  0.63254908  0.49961501  0.41185724     0.11600
S883        S  0.71590047  0.57349042  0.30116472    -0.27400
H884        H  0.72604948  0.48572742  0.28730189     0.08800
H885        H  0.81065880  0.36096862  0.36360241     0.27200
H886        H  0.61707576  0.43110918  0.42498646     0.22000
H887        H  0.68678618  0.60358828  0.31535176     0.27400
H888        H  0.62799666  0.44175937  0.28095323     0.16200
C889        C  0.32263978  0.30737210  0.02125864    -0.11100
C890        C  0.34366764  0.31417179  0.05942439     0.15400
C891        C  0.38440975  0.33222311  0.05911147     0.02300
C892        C  0.40342663  0.34253615  0.02073092    -0.15400
C893        C  0.38247829  0.33553260  0.98271735    -0.10300
C894        C  0.34187141  0.31756583  0.98287034     0.09100
C895        C  0.32318957  0.30039343  0.09888731     0.10100
S896        S  0.41386006  0.34248072  0.10643295    -0.24600
H897        H  0.43489589  0.35595505  0.02043060     0.20400
S898        S  0.31371236  0.30639091  0.93505931    -0.30300
H899        H  0.29149988  0.29321918  0.02140866     0.10700
C900        C  0.28954486  0.32300249  0.11668277     0.03900
C901        C  0.27145476  0.30916711  0.15448547    -0.12600
C902        C  0.28574545  0.27260190  0.17503093    -0.08300
C903        C  0.31968948  0.24981987  0.15634563     0.07300
C904        C  0.33805937  0.26427851  0.11896776    -0.13300
S905        S  0.27092595  0.37070050  0.09229217    -0.30300
H906        H  0.24637742  0.32760835  0.16824730     0.11600
S907        S  0.34184756  0.20235360  0.17769674    -0.27400
H908        H  0.36414557  0.24703254  0.10515723     0.08800
H909        H  0.34874332  0.29931797  0.90899272     0.27200
H910        H  0.23529814  0.37630988  0.11824041     0.22000
H911        H  0.30352385  0.18005790  0.17538089     0.27400
H912        H  0.37882635  0.35006789  0.13259516     0.16200
C913        C  0.26043997  0.11013810  0.33377109    -0.11100
C914        C  0.30102118  0.09612946  0.32351232     0.15400
C915        C  0.32825033  0.12241562  0.30019458     0.02300
C916        C  0.31387966  0.16153898  0.28660632    -0.15400
C917        C  0.27232976  0.17497888  0.29452883    -0.10300
C918        C  0.24569745  0.14909257  0.31962266     0.09100
C919        C  0.31400936  0.05388116  0.33739170     0.10100
S920        S  0.38112688  0.10732506  0.28535680    -0.24600
H921        H  0.33529483  0.18118407  0.26859790     0.20400
S922        S  0.19276393  0.16294970  0.33468518    -0.30300
H923        H  0.23988425  0.09021920  0.35250814     0.10700
C924        C  0.34329488  0.04868343  0.36998765     0.03900
C925        C  0.35495080  0.00795267  0.38185885    -0.12600
C926        C  0.33680319  0.97243040  0.36277794    -0.08300
C927        C  0.30707336  0.97767792  0.33026885     0.07300
C928        C  0.29627762  0.01842973  0.31777898    -0.13300
S929        S  0.36357123  0.09379335  0.39829657    -0.30300
H930        H  0.37655540  0.00359416  0.40772673     0.11600
S931        S  0.27880146  0.93455999  0.30609341    -0.27400
H932        H  0.27307450  0.02261058  0.29328057     0.08800
H933        H  0.17987749  0.17210001  0.29363011     0.27200
H934        H  0.38812333  0.07115302  0.42712503     0.22000
H935        H  0.30068156  0.90105985  0.32446596     0.27400
H936        H  0.37297554  0.06388881  0.28150573     0.16200
C937        C  0.11018655  0.33730265  0.26997626    -0.11100
C938        C  0.09590325  0.32892219  0.31076185     0.15400
C939        C  0.12037536  0.30373412  0.33757962     0.02300
C940        C  0.15794384  0.28631131  0.32233219    -0.15400
C941        C  0.17197800  0.29326789  0.28073093    -0.10300
C942        C  0.14769376  0.31994362  0.25449183     0.09100
C943        C  0.05376987  0.34445838  0.32268294     0.10100
S944        S  0.10448245  0.29028175  0.39055641    -0.24600
H945        H  0.17594072  0.26643377  0.34320744     0.20400
S946        S  0.16096769  0.33047981  0.20023910    -0.30300
H947        H  0.09091791  0.35645904  0.24959045     0.10700
C948        C  0.04834102  0.38415476  0.34176629     0.03900
C949        C  0.00748203  0.39880082  0.34980435    -0.12600
C950        C  0.97213420  0.37458397  0.33881554    -0.08300
C951        C  0.97767398  0.33472694  0.31994353     0.07300
C952        C  0.01846440  0.32026232  0.31170575    -0.13300
S953        S  0.09342958  0.41629790  0.35505963    -0.30300
H954        H  0.00287510  0.42956873  0.36393441     0.11600
S955        S  0.93423808  0.30231735  0.30323780    -0.27400
H956        H  0.02286142  0.29030810  0.29593383     0.08800
H957        H  0.14059975  0.36973888  0.19856197     0.27200
H958        H  0.07068948  0.45069321  0.37141003     0.22000
H959        H  0.90598668  0.31493839  0.33493536     0.27400
H960        H  0.07596593  0.32333261  0.39727372     0.16200
C961        C  0.69510720  0.52808137  0.18997226    -0.11100
C962        C  0.68520429  0.56395379  0.16628131     0.15400
C963        C  0.66748043  0.55896527  0.12597351     0.02300
C964        C  0.66095025  0.51838428  0.10994034    -0.15400
C965        C  0.67109041  0.48259311  0.13355235    -0.10300
C966        C  0.68782952  0.48747540  0.17423809     0.09100
C967        C  0.69786767  0.60579578  0.18256527     0.10100
S968        S  0.65353816  0.60303739  0.09318299    -0.24600
H969        H  0.64809834  0.51462728  0.07862602     0.20400
S970        S  0.70309178  0.44347664  0.20638690    -0.30300
H971        H  0.70959509  0.53173248  0.22047443     0.10700
C972        C  0.67568122  0.62586353  0.21525487     0.03900
C973        C  0.69107650  0.66399165  0.23164869    -0.12600
C974        C  0.72830640  0.68294868  0.21594014    -0.08300
C975        C  0.74903861  0.66343875  0.18112226     0.07300
C976        C  0.73374481  0.62499099  0.16547659    -0.13300
S977        S  0.62767970  0.60289201  0.23596356    -0.30300
H978        H  0.67396501  0.67881198  0.25717654     0.11600
S979        S  0.79548028  0.68530251  0.15607020    -0.27400
H980        H  0.75030304  0.60910741  0.14013803     0.08800
H981        H  0.67516079  0.41361147  0.18947308     0.27200
H982        H  0.62181517  0.63184971  0.26907008     0.22000
H983        H  0.79462409  0.66014645  0.11958133     0.27400
H984        H  0.64445873  0.63114581  0.12624898     0.16200
C985        C  0.87998405  0.85853723  0.22010083    -0.11100
C986        C  0.90802024  0.83454715  0.19560969     0.15400
C987        C  0.89774194  0.79233402  0.18601479     0.02300
C988        C  0.86111616  0.77447567  0.20281571    -0.15400
C989        C  0.83276961  0.79825803  0.22731808    -0.10300
C990        C  0.84200993  0.84133612  0.23495308     0.09100
C991        C  0.94931395  0.85299532  0.18364961     0.10100
S992        S  0.92975738  0.75970223  0.15209723    -0.24600
H993        H  0.85492900  0.74146792  0.19668363     0.20400
S994        S  0.80639577  0.87656488  0.26180884    -0.30300
H995        H  0.88767481  0.89103655  0.22750948     0.10700
C996        C  0.95279302  0.88885369  0.15766855     0.03900
C997        C  0.99277504  0.90615518  0.14944248    -0.12600
C998        C  0.02918259  0.88812452  0.16645911    -0.08300
C999        C  0.02570979  0.85095089  0.19063768     0.07300
C1000       C  0.98586973  0.83435179  0.19953879    -0.13300
S1001       S  0.90656971  0.91214256  0.13449524    -0.30300
H1002       H  0.99574271  0.93433448  0.13046459     0.11600
S1003       S  0.07026671  0.82491295  0.21388662    -0.27400
H1004       H  0.98318445  0.80687917  0.21955901     0.08800
H1005       H  0.76991676  0.85981844  0.24303393     0.27200
H1006       H  0.92756480  0.94488631  0.11307176     0.22000
H1007       H  0.10210345  0.84631911  0.19206463     0.27400
H1008       H  0.94572856  0.79280607  0.12727931     0.16200
C1009       C  0.68472878  0.76305583  0.40285056    -0.11100
C1010       C  0.69013448  0.80444500  0.41706707     0.15400
C1011       C  0.71329646  0.83326261  0.39226457     0.02300
C1012       C  0.73098366  0.81973257  0.35405368    -0.15400
C1013       C  0.72558585  0.77809210  0.33944223    -0.10300
C1014       C  0.70207085  0.74949036  0.36460699     0.09100
C1015       C  0.67272658  0.81548467  0.45886315     0.10100
S1016       S  0.72271169  0.88716700  0.40809226    -0.24600
H1017       H  0.74872519  0.84222573  0.33539247     0.20400
S1018       S  0.69547811  0.69470297  0.35098680    -0.30300
H1019       H  0.66747022  0.74088257  0.42229121     0.10700
C1020       C  0.63092156  0.82943472  0.46362556     0.03900
C1021       C  0.61481392  0.83684235  0.50411711    -0.12600
C1022       C  0.63947546  0.82979160  0.53993409    -0.08300
C1023       C  0.68130221  0.81560583  0.53504584     0.07300
C1024       C  0.69745997  0.80878311  0.49456723    -0.13300
S1025       S  0.59804892  0.83712306  0.41814043    -0.30300
H1026       H  0.58262338  0.84743521  0.50810086     0.11600
S1027       S  0.71523677  0.80383541  0.57864482    -0.27400
H1028       H  0.72911081  0.79679900  0.49088016     0.08800
H1029       H  0.65375219  0.69297727  0.36593887     0.27200
H1030       H  0.56150526  0.84928186  0.44023680     0.22000
H1031       H  0.68431775  0.79966462  0.60996480     0.27400
H1032       H  0.68721652  0.89165497  0.43425091     0.16200
C1033       C  0.31284573  0.88322371  0.16488670    -0.11100
C1034       C  0.33581876  0.90991714  0.19147395     0.15400
C1035       C  0.34756426  0.89532982  0.23146200     0.02300
C1036       C  0.33078388  0.85730713  0.24643772    -0.15400
C1037       C  0.30411069  0.83208929  0.22136395    -0.10300
C1038       C  0.29880059  0.84367565  0.17865388     0.09100
C1039       C  0.34445717  0.95371568  0.17790139     0.10100
S1040       S  0.38317782  0.92433204  0.26488156    -0.24600
H1041       H  0.33788910  0.84815769  0.27840832     0.20400
S1042       S  0.27733643  0.80892572  0.13932379    -0.30300
H1043       H  0.30587307  0.89328272  0.13312641     0.10700
C1044       C  0.37228200  0.96269286  0.14443841     0.03900
C1045       C  0.37718241  0.00448889  0.13103266    -0.12600
C1046       C  0.35484955  0.03743834  0.15042203    -0.08300
C1047       C  0.32829593  0.02864316  0.18508372     0.07300
C1048       C  0.32307973  0.98682499  0.19815977    -0.13300
S1049       S  0.40182091  0.92103474  0.11918108    -0.30300
H1050       H  0.39788056  0.01158453  0.10475425     0.11600
S1051       S  0.29833869  0.06875801  0.21211459    -0.27400
H1052       H  0.30162944  0.97990267  0.22387170     0.08800
H1053       H  0.29397436  0.77209446  0.15729370     0.27200
H1054       H  0.42368692  0.94673601  0.09033055     0.22000
H1055       H  0.32451912  0.10296822  0.20156544     0.27400
H1056       H  0.40507069  0.94497344  0.23228456     0.16200
C1057       C  0.11917137  0.73515715  0.18115809    -0.11100
C1058       C  0.10210272  0.69974443  0.20133024     0.15400
C1059       C  0.12589117  0.67920741  0.23240582     0.02300
C1060       C  0.16494733  0.69583931  0.24419542    -0.15400
C1061       C  0.18154786  0.73284452  0.22585662    -0.10300
C1062       C  0.15805132  0.75235008  0.19339060     0.09100
C1063       C  0.05877180  0.68599047  0.19070881     0.10100
S1064       S  0.10792300  0.63233289  0.25926908    -0.24600
H1065       H  0.18229099  0.67965978  0.26852037     0.20400
S1066       S  0.17372091  0.80058925  0.16804424    -0.30300
H1067       H  0.10105215  0.75073881  0.15697232     0.10700
C1068       C  0.02359919  0.69905526  0.21471872     0.03900
C1069       C  0.98342131  0.68320133  0.20504827    -0.12600
C1070       C  0.97803749  0.65296389  0.17323123    -0.08300
C1071       C  0.01330224  0.64056440  0.14878395     0.07300
C1072       C  0.05300516  0.65789948  0.15716409    -0.13300
S1073       S  0.03001046  0.73492373  0.25838518    -0.30300
H1074       H  0.95622538  0.69329991  0.22309263     0.11600
S1075       S  0.01000560  0.60185561  0.10723919    -0.27400
H1076       H  0.08000432  0.64790703  0.13868391     0.08800
H1077       H  0.17885632  0.82257219  0.20621996     0.27200
H1078       H  0.98740439  0.73598953  0.27083335     0.22000
H1079       H  0.97966953  0.57619933  0.12710381     0.27400
H1080       H  0.08156518  0.61690929  0.22742426     0.16200
C1081       C  0.34032047  0.68128730  0.47721766    -0.11100
C1082       C  0.30985029  0.71308522  0.47470696     0.15400
C1083       C  0.29095351  0.72816885  0.51235793     0.02300
C1084       C  0.30471042  0.71271470  0.55130222    -0.15400
C1085       C  0.33803653  0.68389379  0.55346244    -0.10300
C1086       C  0.35493590  0.66701708  0.51592126     0.09100
C1087       C  0.29799078  0.72815269  0.43211610     0.10100
S1088       S  0.25117002  0.76863979  0.51323447    -0.24600
H1089       H  0.29130511  0.72525679  0.58010037     0.20400
S1090       S  0.39716384  0.62907831  0.51528774    -0.30300
H1091       H  0.35375386  0.66823909  0.44860375     0.10700
C1092       C  0.32807278  0.74529357  0.40398480     0.03900
C1093       C  0.31617764  0.75524623  0.36276093    -0.12600
C1094       C  0.27527357  0.74685888  0.34795174    -0.08300
C1095       C  0.24526136  0.72947294  0.37656709     0.07300
C1096       C  0.25680764  0.72156336  0.41817931    -0.13300
S1097       S  0.38194719  0.75410416  0.42009333    -0.30300
H1098       H  0.33948520  0.76840239  0.34150246     0.11600
S1099       S  0.19206298  0.71516701  0.36292849    -0.27400
H1100       H  0.23348186  0.70944196  0.43992191     0.08800
H1101       H  0.38600360  0.60927638  0.55324835     0.27200
H1102       H  0.39634222  0.77268483  0.38251581     0.22000
H1103       H  0.18480356  0.75178961  0.33967558     0.27400
H1104       H  0.26456996  0.78933468  0.47644574     0.16200
C1105       C  0.82340220  0.81391975  0.52736450    -0.11100
C1106       C  0.84661966  0.82516103  0.56312342     0.15400
C1107       C  0.88475782  0.84773403  0.55835327     0.02300
C1108       C  0.89919019  0.85763892  0.51789485    -0.15400
C1109       C  0.87611335  0.84602348  0.48220754    -0.10300
C1110       C  0.83736980  0.82479251  0.48702394     0.09100
C1111       C  0.83151774  0.81011379  0.60444052     0.10100
S1112       S  0.91759586  0.86289713  0.60207229    -0.24600
H1113       H  0.92913610  0.87379510  0.51411108     0.20400
S1114       S  0.80584628  0.80863215  0.44290292    -0.30300
H1115       H  0.79462897  0.79584654  0.53091928     0.10700
C1116       C  0.80309221  0.83374061  0.62889328     0.03900
C1117       C  0.78663083  0.81637287  0.66605836    -0.12600
C1118       C  0.79825312  0.77578567  0.67968021    -0.08300
C1119       C  0.82851025  0.75298197  0.65555251     0.07300
C1120       C  0.84431019  0.77037986  0.61815153    -0.13300
S1121       S  0.78729378  0.88574335  0.61224144    -0.30300
H1122       H  0.76429638  0.83456002  0.68438037     0.11600
S1123       S  0.84650492  0.70093018  0.66964032    -0.27400
H1124       H  0.86609897  0.75248246  0.59881646     0.08800
H1125       H  0.81864742  0.84086240  0.41537700     0.27200
H1126       H  0.75731133  0.89261466  0.64428003     0.22000
H1127       H  0.88514163  0.70347169  0.64784200     0.27400
H1128       H  0.88633516  0.86232236  0.63346554     0.16200
C1129       C  0.83143326  0.54665876  0.87994012    -0.11100
C1130       C  0.83781779  0.55232327  0.83680187     0.15400
C1131       C  0.85599456  0.51977221  0.81247143     0.02300
C1132       C  0.86252649  0.48038224  0.83081677    -0.15400
C1133       C  0.85340408  0.47392964  0.87344943    -0.10300
C1134       C  0.84055290  0.50821231  0.89890360     0.09100
C1135       C  0.82175516  0.59138846  0.81827148     0.10100
S1136       S  0.87173893  0.52636432  0.75841705    -0.24600
H1137       H  0.87435161  0.45458192  0.81173153     0.20400
S1138       S  0.83667090  0.50372292  0.95554509    -0.30300
H1139       H  0.81895622  0.57243882  0.89857652     0.10700
C1140       C  0.78003333  0.59357704  0.80376372     0.03900
C1141       C  0.76394083  0.63241221  0.79063239    -0.12600
C1142       C  0.78941279  0.66863991  0.79060265    -0.08300
C1143       C  0.83140211  0.66614119  0.80492663     0.07300
C1144       C  0.84696413  0.62760957  0.81905894    -0.13300
S1145       S  0.74801355  0.54651428  0.80062449    -0.30300
H1146       H  0.73199086  0.63431384  0.77899706     0.11600
S1147       S  0.86639787  0.71100640  0.80679333    -0.27400
H1148       H  0.87884147  0.62580564  0.83095699     0.08800
H1149       H  0.81787843  0.54314657  0.96304757     0.27200
H1150       H  0.71564762  0.56432096  0.77644338     0.22000
H1151       H  0.83480681  0.74119558  0.81398622     0.27400
H1152       H  0.87496816  0.57050672  0.75893189     0.16200
C1153       C  0.61449576  0.81489660  0.77072658    -0.11100
C1154       C  0.60863747  0.82002893  0.81423207     0.15400
C1155       C  0.63922201  0.80364242  0.84192252     0.02300
C1156       C  0.67442311  0.78251950  0.82554221    -0.15400
C1157       C  0.68070061  0.77837937  0.78196525    -0.10300
C1158       C  0.64994479  0.79444932  0.75441078     0.09100
C1159       C  0.56873919  0.83958274  0.82927213     0.10100
S1160       S  0.63601168  0.80973420  0.89826571    -0.24600
H1161       H  0.69788902  0.77053425  0.84701955     0.20400
S1162       S  0.65296043  0.78825175  0.69822703    -0.30300
H1163       H  0.59063619  0.82604874  0.74924265     0.10700
C1164       C  0.55653515  0.88023468  0.81636179     0.03900
C1165       C  0.51654298  0.89541697  0.82752621    -0.12600
C1166       C  0.48786524  0.87085105  0.85092427    -0.08300
C1167       C  0.50200601  0.83165156  0.86728788     0.07300
C1168       C  0.54157315  0.81622042  0.85527120    -0.13300
S1169       S  0.59232945  0.91350648  0.78681791    -0.30300
H1170       H  0.50766290  0.92694133  0.81823550     0.11600
S1171       S  0.47217403  0.79882226  0.90328682    -0.27400
H1172       H  0.55104780  0.78523407  0.86586618     0.08800
H1173       H  0.67039861  0.74754601  0.69936072     0.27200
H1174       H  0.56510902  0.94810743  0.78243441     0.22000
H1175       H  0.43184021  0.80939497  0.88898784     0.27400
H1176       H  0.61461997  0.84847992  0.89761966     0.16200
loop_ 
_geom_bond_atom_site_label_1 
_geom_bond_atom_site_label_2 
_geom_bond_distance 
_geom_bond_site_symmetry_2 
_ccdc_geom_bond_type 
C1            N2   1.357       .  A
C1            N6   1.354       .  A
C1         C1142   1.467       .  S
N2            C3   1.359       .  A
C3            N4   1.360       .  A
C3         C1157   1.480       .  S
N4            C5   1.359       .  A
C5            N6   1.354       .  A
C5         C1118   1.493       .  S
C7            N8   1.353       .  A
C7           N12   1.358       .  A
C7         C1094   1.494       .  S
N8            C9   1.357       .  A
C9           N10   1.361       .  A
C9         C1061   1.498       .  S
N10          C11   1.364       .  A
C11          N12   1.361       .  A
C11        C1037   1.496       .  S
C13          N14   1.355       .  A
C13          N18   1.358       .  A
C13         C974   1.499       .  S
N14          C15   1.358       .  A
C15          N16   1.359       .  A
C15         C989   1.485       .  S
N16          C17   1.360       .  A
C17          N18   1.359       .  A
C17        C1013   1.491       .  S
C19          N20   1.359       .  A
C19          N24   1.352       .  A
C19         C902   1.496       .  S
N20          C21   1.358       .  A
C21          N22   1.360       .  A
C21         C941   1.493       .  S
N22          C23   1.356       .  A
C23          N24   1.356       .  A
C23         C917   1.486       .  S
C25          N26   1.356       .  A
C25          N30   1.354       .  A
C25         C845   1.488       .  S
N26          C27   1.356       .  A
C27          N28   1.356       .  A
C27         C869   1.484       .  S
N28          C29   1.356       .  A
C29          N30   1.356       .  A
C29         C821   1.478       .  S
C31          N32   1.355       .  A
C31          N36   1.357       .  A
C31         C749   1.469       .  S
N32          C33   1.357       .  A
C33          N34   1.359       .  A
C33         C797   1.486       .  S
N34          C35   1.360       .  A
C35          N36   1.361       .  A
C35         C773   1.491       .  S
C37          N38   1.361       .  A
C37          N42   1.354       .  A
C37         C677   1.470       .  S
N38          C39   1.360       .  A
C39          N40   1.360       .  A
C39         C710   1.490       .  S
N40          C41   1.360       .  A
C41          N42   1.352       .  A
C41         C734   1.483       .  S
O43         Mg45   2.109       .  S
O43         Mg51   2.102       .  S
O43          C78   1.242       .  S
C44          O57   1.244       .  S
C44          O81   1.279       .  A
C44          H83   1.082       .  S
Mg45         O74   2.084       .  S
Mg45         O89   2.267       .  S
Mg45         O85   2.194       .  S
Mg45         O56   2.334       .  S
O46         Mg88   2.103       .  S
O46         Mg71   2.117       .  S
O46          C67   1.245       .  S
O47          C78   1.278       .  A
O47         Mg71   2.334       .  S
C48          O50   1.284       .  A
C48          O62   1.265       .  A
C48         N105   1.462       .  S
O49          C77   1.279       .  A
O49         Mg51   2.327       .  S
O50         Mg82   2.335       .  S
Mg51         O57   2.150       .  S
Mg51         O65   2.333       .  S
Mg51         O53   2.453   1_455  S
C52         C454   1.513       .  S
C52          O90   1.248   1_556  A
C52          O58   1.289       .  A
O53          C60   1.289       .  A
H54          C67   1.081       .  S
C55          O69   1.244       .  S
C55          O70   1.278       .  A
C55          H80   1.081       .  S
O56          C79   1.279       .  A
O57         Mg71   2.083       .  S
O58         Mg88   2.449   1_556  S
C59          O72   1.287       .  A
C59          O64   1.266       .  A
C59          N91   1.461       .  S
C60         C385   1.517       .  S
C60          O87   1.250   1_655  A
Mg61         O68   2.106       .  S
Mg61         O69   2.085       .  S
Mg61         O62   2.289       .  S
Mg61         O63   2.343       .  S
Mg61         O90   2.197       .  S
O63          C67   1.281       .  A
O64         Mg71   2.294       .  S
O65          C84   1.284       .  A
O66          C86   1.288       .  A
O66         Mg82   2.446   1_565  S
O68         Mg82   2.102       .  S
O68          C79   1.243       .  S
O69         Mg88   2.150       .  S
O70         Mg82   2.328       .  S
Mg71         O87   2.206       .  S
O72         Mg88   2.331       .  S
H73          C78   1.081       .  S
O74         Mg82   2.150       .  S
O74          C77   1.243       .  S
H75          C77   1.081       .  S
H76          C79   1.081       .  S
O81         Mg88   2.325       .  S
C84          O89   1.260       .  A
C84          N98   1.464       .  S
O85          C86   1.248   1_545  A
C86         C247   1.510       .  S
N91          C95   1.383       .  A
N91          C92   1.361       .  A
C92         C662   1.483       .  S
C92          C93   1.379       .  A
C93          H96   1.082       .  S
C93          C94   1.373       .  A
C94          H97   1.082       .  S
C94          C95   1.385       .  A
C95         C324   1.498       .  S
N98         C102   1.386       .  A
N98          C99   1.359       .  A
C99         C854   1.474       .  S
C99         C100   1.378       .  A
C100        H103   1.082       .  S
C100        C101   1.374       .  A
C101        H104   1.082       .  S
C101        C102   1.385       .  A
C102        C198   1.504       .  S
N105        C109   1.383       .  A
N105        C106   1.360       .  A
C106       C1046   1.477       .  S
C106        C107   1.379       .  A
C107        H110   1.082       .  S
C107        C108   1.373       .  A
C108        H111   1.082       .  S
C108        C109   1.384       .  A
C109        C429   1.497       .  S
O112       Mg114   2.112       .  S
O112       Mg120   2.132       .  S
O112        C147   1.243       .  S
C113        O126   1.244       .  S
C113        O150   1.277       .  A
C113        H152   1.081       .  S
Mg114       O143   2.099       .  S
Mg114       O158   2.245       .  S
Mg114       O154   2.197       .  S
Mg114       O125   2.327       .  S
O115       Mg157   2.118       .  S
O115       Mg140   2.111       .  S
O115        C136   1.243       .  S
O116        C147   1.276       .  A
O116       Mg140   2.307       .  S
C117        C233   1.491       .  S
C117        O119   1.283       .  A
C117        O131   1.260       .  A
O118        C146   1.277       .  A
O118       Mg120   2.321       .  S
O119       Mg151   2.314   1_455  S
Mg120       O126   2.113       .  S
Mg120       O134   2.333       .  S
Mg120       O122   2.436       .  S
C121        O159   1.250       .  A
C121        O127   1.291       .  A
C121        N174   1.461       .  S
O122        C129   1.292       .  A
H123        C136   1.081       .  S
C124        O138   1.242       .  S
C124        O139   1.276       .  A
C124        H149   1.081       .  S
O125        C148   1.279       .  A
O126       Mg140   2.099       .  S
O127       Mg157   2.447       .  S
C128        C523   1.506       .  S
C128        O141   1.287       .  A
C128        O133   1.261       .  A
C129        O156   1.256       .  A
C129        N160   1.460       .  S
Mg130       O137   2.120       .  S
Mg130       O138   2.097       .  S
Mg130       O131   2.247   1_655  S
Mg130       O132   2.318       .  S
Mg130       O159   2.198       .  S
O132        C136   1.278       .  A
O133       Mg140   2.255       .  S
O134        C153   1.285       .  A
O135        C155   1.287       .  A
O135       Mg151   2.416       .  S
O137       Mg151   2.125       .  S
O137        C148   1.244       .  S
O138       Mg157   2.129       .  S
O139       Mg151   2.319       .  S
Mg140       O156   2.202       .  S
O141       Mg157   2.339       .  S
H142        C147   1.081       .  S
O143       Mg151   2.121       .  S
O143        C146   1.243       .  S
H144        C146   1.081       .  S
H145        C148   1.082       .  S
O150       Mg157   2.317       .  S
C153        C378   1.503       .  S
C153        O158   1.258       .  A
O154        C155   1.252       .  A
C155        N167   1.459       .  S
N160        C164   1.383       .  A
N160        C161   1.358       .  A
C161        C878   1.471       .  S
C161        C162   1.378       .  A
C162        H165   1.082       .  S
C162        C163   1.372       .  A
C163        H166   1.082       .  S
C163        C164   1.384       .  A
C164        C498   1.500       .  S
N167        C171   1.388       .  A
N167        C168   1.361       .  A
C168       C1070   1.484       .  S
C168        C169   1.379       .  A
C169        H172   1.082       .  S
C169        C170   1.376       .  A
C170        H173   1.082       .  S
C170        C171   1.384       .  A
C171        C360   1.511       .  S
N174        C178   1.388       .  A
N174        C175   1.356       .  A
C175       C1109   1.473       .  S
C175        C176   1.378       .  A
C176        H179   1.082       .  S
C176        C177   1.375       .  A
C177        H180   1.082       .  S
C177        C178   1.385       .  A
C178        C190   1.512       .  S
O181       Mg183   2.115       .  S
O181       Mg189   2.105       .  S
O181        C216   1.243       .  S
C182        O195   1.243       .  S
C182        O219   1.277       .  A
C182        H221   1.080       .  S
Mg183       O212   2.070       .  S
Mg183       O227   2.267       .  S
Mg183       O223   2.193       .  S
Mg183       O194   2.347       .  S
O184       Mg226   2.104       .  S
O184       Mg209   2.123       .  S
O184        C205   1.244       .  S
O185        C216   1.279       .  A
O185       Mg209   2.333       .  S
C186        O188   1.287       .  A
C186        O200   1.269       .  A
C186        N229   1.468       .  S
O187        C215   1.276       .  A
O187       Mg189   2.323       .  S
O188       Mg220   2.318       .  S
Mg189       O195   2.144       .  S
Mg189       O203   2.316       .  S
Mg189       O191   2.434   1_565  S
C190        O228   1.251       .  A
C190        O196   1.287       .  A
O191        C198   1.286       .  A
H192        C205   1.081       .  S
C193        O207   1.240       .  S
C193        O208   1.277       .  A
C193        H218   1.082       .  S
O194        C217   1.282       .  A
O195       Mg209   2.083       .  S
O196       Mg226   2.440   1_655  S
C197        O210   1.284       .  A
C197        O202   1.259       .  A
C197        N243   1.463       .  S
C198        O225   1.247       .  A
Mg199       O206   2.129       .  S
Mg199       O207   2.076       .  S
Mg199       O200   2.317       .  S
Mg199       O201   2.343       .  S
Mg199       O228   2.210   1_455  S
O201        C205   1.281       .  A
O202       Mg209   2.267       .  S
O203        C222   1.283       .  A
O204        C224   1.290       .  A
O204       Mg220   2.473       .  S
O206       Mg220   2.101       .  S
O206        C217   1.245       .  S
O207       Mg226   2.152       .  S
O208       Mg220   2.318       .  S
Mg209       O225   2.194   1_565  S
O210       Mg226   2.336       .  S
H211        C216   1.081       .  S
O212       Mg220   2.125       .  S
O212        C215   1.243       .  S
H213        C215   1.081       .  S
H214        C217   1.081       .  S
O219       Mg226   2.323       .  S
C222        O227   1.260       .  A
C222        N236   1.459       .  S
O223        C224   1.245       .  A
C224        C585   1.516       .  S
N229        C233   1.380       .  A
N229        C230   1.364       .  A
C230        C686   1.478       .  S
C230        C231   1.380       .  A
C231        H234   1.082       .  S
C231        C232   1.370       .  A
C232        H235   1.082       .  S
C232        C233   1.384       .  A
N236        C240   1.380       .  A
N236        C237   1.356       .  A
C237        C926   1.471       .  S
C237        C238   1.378       .  A
C238        H241   1.081       .  S
C238        C239   1.375       .  A
C239        H242   1.082       .  S
C239        C240   1.385       .  A
C240        C567   1.495       .  S
N243        C247   1.388       .  A
N243        C244   1.361       .  A
C244        C998   1.478       .  S
C244        C245   1.377       .  A
C245        H248   1.082       .  S
C245        C246   1.373       .  A
C246        H249   1.082       .  S
C246        C247   1.386       .  A
O250       Mg252   2.133       .  S
O250        C285   1.243       .  S
O250       Mg258   1.948       .  S
C251        O264   1.245       .  S
C251        O288   1.282       .  A
C251        H290   1.082       .  S
Mg252       O281   2.077       .  S
Mg252       O296   2.307       .  S
Mg252       O292   2.193   1_556  S
Mg252       O263   2.345       .  S
O253       Mg295   2.088       .  S
O253       Mg278   2.111       .  S
O253        C274   1.244       .  S
O254        C285   1.283       .  A
O254       Mg278   2.368       .  S
C255        O257   1.287       .  A
C255        O269   1.265       .  A
C255        N305   1.464       .  S
O256        C284   1.275       .  A
O256       Mg258   2.215       .  S
O257       Mg289   2.334       .  S
Mg258       O264   2.060       .  S
Mg258       O272   2.277       .  S
Mg258       O260   2.393       .  S
C259        C447   1.511       .  S
C259        O297   1.249       .  A
C259        O265   1.287       .  A
O260        C267   1.301       .  A
H261        C274   1.081       .  S
C262        O276   1.240       .  S
C262        O277   1.275       .  A
C262        H287   1.083       .  S
O263        C286   1.284       .  A
O264       Mg278   2.091       .  S
O265       Mg295   2.443       .  S
C266        O279   1.280       .  A
C266        O271   1.263       .  A
C266        N298   1.461       .  S
C267        C516   1.531       .  S
C267        O294   1.246       .  A
Mg268       O275   2.120       .  S
Mg268       O276   2.091       .  S
Mg268       O269   2.296       .  S
Mg268       O270   2.336       .  S
Mg268       O297   2.199       .  S
O270        C274   1.279       .  A
O271       Mg278   2.292       .  S
O272        C291   1.301       .  A
O273        C293   1.285       .  A
O273       Mg289   2.445   1_554  S
O275       Mg289   2.095       .  S
O275        C286   1.248       .  S
O276       Mg295   2.136       .  S
O277       Mg289   2.323       .  S
Mg278       O294   2.182       .  S
O279       Mg295   2.317       .  S
H280        C285   1.080       .  S
O281       Mg289   2.152       .  S
O281        C284   1.240       .  S
H282        C284   1.079       .  S
H283        C286   1.081       .  S
O288       Mg295   2.355       .  S
C291        O296   1.269       .  A
C291        N312   1.471       .  S
O292        C293   1.246       .  A
C293        C371   1.515       .  S
N298        C302   1.379       .  A
N298        C299   1.359       .  A
C299        C629   1.471       .  S
C299        C300   1.377       .  A
C300        H303   1.082       .  S
C300        C301   1.373       .  A
C301        H304   1.082       .  S
C301        C302   1.385       .  A
C302        C462   1.490       .  S
N305        C309   1.381       .  A
N305        C306   1.358       .  A
C306        C830   1.468       .  S
C306        C307   1.377       .  A
C307        H310   1.082       .  S
C307        C308   1.372       .  A
C308        H311   1.082       .  S
C308        C309   1.385       .  A
C309        C404   1.495       .  S
N312        C316   1.388       .  A
N312        C313   1.356       .  A
C313       C1133   1.470       .  S
C313        C314   1.378       .  A
C314        H317   1.082       .  S
C314        C315   1.370       .  A
C315        H318   1.083       .  S
C315        C316   1.386       .  A
C316        C335   1.497       .  S
O319       Mg321   2.101       .  S
O319       Mg327   2.117       .  S
O319        C354   1.242       .  S
C320        O333   1.241       .  S
C320        O357   1.276       .  A
C320        H359   1.080       .  S
Mg321       O350   2.092       .  S
Mg321       O365   2.259       .  S
Mg321       O361   2.195       .  S
Mg321       O332   2.324       .  S
O322       Mg364   2.124       .  S
O322       Mg347   2.135       .  S
O322        C343   1.244       .  S
O323        C354   1.277       .  A
O323       Mg347   2.319       .  S
C324        O326   1.285       .  A
C324        O338   1.259       .  A
O325        C353   1.277       .  A
O325       Mg327   2.318       .  S
O326       Mg358   2.331   1_455  S
Mg327       O333   2.142       .  S
Mg327       O341   2.357       .  S
Mg327       O329   2.455       .  S
C328        O366   1.246       .  A
C328        O334   1.292       .  A
C328        N381   1.459       .  S
O329        C336   1.292       .  A
H330        C343   1.081       .  S
C331        O345   1.243       .  S
C331        O346   1.277       .  A
C331        H356   1.079       .  S
O332        C355   1.279       .  A
O333       Mg347   2.093       .  S
O334       Mg364   2.450       .  S
C335        O348   1.288       .  A
C335        O340   1.258       .  A
C336        O363   1.246       .  A
C336        N367   1.460       .  S
Mg337       O344   2.115       .  S
Mg337       O345   2.090       .  S
Mg337       O338   2.252   1_655  S
Mg337       O339   2.331       .  S
Mg337       O366   2.184       .  S
O339        C343   1.280       .  A
O340       Mg347   2.250   1_556  S
O341        C360   1.289       .  A
O342        C362   1.290       .  A
O342       Mg358   2.429       .  S
O344       Mg358   2.120       .  S
O344        C355   1.245       .  S
O345       Mg364   2.129       .  S
O346       Mg358   2.316       .  S
Mg347       O363   2.189       .  S
O348       Mg364   2.343   1_556  S
H349        C354   1.081       .  S
O350       Mg358   2.125       .  S
O350        C353   1.243       .  S
H351        C353   1.081       .  S
H352        C355   1.081       .  S
O357       Mg364   2.317       .  S
C360        O365   1.261       .  A
O361        C362   1.253       .  A
C362        N374   1.460       .  S
N367        C371   1.390       .  A
N367        C368   1.356       .  A
C368        C965   1.474       .  S
C368        C369   1.378       .  A
C369        H372   1.082       .  S
C369        C370   1.375       .  A
C370        H373   1.082       .  S
C370        C371   1.384       .  A
N374        C378   1.385       .  A
N374        C375   1.356       .  A
C375        C950   1.473       .  S
C375        C376   1.378       .  A
C376        H379   1.082       .  S
C376        C377   1.375       .  A
C377        H380   1.082       .  S
C377        C378   1.385       .  A
N381        C385   1.389       .  A
N381        C382   1.356       .  A
C382        C782   1.477       .  S
C382        C383   1.378       .  A
C383        H386   1.082       .  S
C383        C384   1.376       .  A
C384        H387   1.082       .  S
C384        C385   1.386       .  A
O388       Mg390   2.128       .  S
O388       Mg396   2.124       .  S
O388        C423   1.242       .  S
C389        O402   1.243       .  S
C389        O426   1.277       .  A
C389        H428   1.081       .  S
Mg390       O419   2.092       .  S
Mg390       O434   2.244   1_556  S
Mg390       O430   2.203       .  S
Mg390       O401   2.321       .  S
O391       Mg433   2.109       .  S
O391       Mg416   2.108       .  S
O391        C412   1.243       .  S
O392        C423   1.279       .  A
O392       Mg416   2.330       .  S
C393        C592   1.510       .  S
C393        O395   1.288       .  A
C393        O407   1.259       .  A
O394        C422   1.277       .  A
O394       Mg396   2.322       .  S
O395       Mg427   2.355   1_565  S
Mg396       O402   2.128       .  S
Mg396       O410   2.334   1_556  S
Mg396       O398   2.442       .  S
C397        O435   1.254       .  A
C397        O403   1.292       .  A
C397        N436   1.458       .  S
O398        C405   1.292       .  A
H399        C412   1.082       .  S
C400        O414   1.244       .  S
C400        O415   1.277       .  A
C400        H425   1.081       .  S
O401        C424   1.277       .  A
O402       Mg416   2.093       .  S
O403       Mg433   2.435       .  S
C404        O417   1.286       .  A
C404        O409   1.262       .  A
C405        O432   1.250       .  A
C405        N443   1.461       .  S
Mg406       O413   2.104       .  S
Mg406       O414   2.101       .  S
Mg406       O407   2.243   1_545  S
Mg406       O408   2.316       .  S
Mg406       O435   2.194       .  S
O408        C412   1.277       .  A
O409       Mg416   2.268       .  S
O410        C429   1.286       .  A
O411        C431   1.293       .  A
O411       Mg427   2.461       .  S
O413       Mg427   2.120       .  S
O413        C424   1.243       .  S
O414       Mg433   2.122       .  S
O415       Mg427   2.318       .  S
Mg416       O432   2.193       .  S
O417       Mg433   2.323       .  S
H418        C423   1.081       .  S
O419       Mg427   2.130       .  S
O419        C422   1.243       .  S
H420        C422   1.081       .  S
H421        C424   1.082       .  S
O426       Mg433   2.321       .  S
C429        O434   1.259       .  A
O430        C431   1.250       .  A
C431        N450   1.464       .  S
N436        C440   1.387       .  A
N436        C437   1.360       .  A
C437        C758   1.488       .  S
C437        C438   1.381       .  A
C438        H441   1.082       .  S
C438        C439   1.374       .  A
C439        H442   1.082       .  S
C439        C440   1.383       .  A
C440        C531   1.508       .  S
N443        C447   1.388       .  A
N443        C444   1.354       .  A
C444        C893   1.469       .  S
C444        C445   1.376       .  A
C445        H448   1.082       .  S
C445        C446   1.374       .  A
C446        H449   1.082       .  S
C446        C447   1.386       .  A
N450        C454   1.391       .  A
N450        C451   1.360       .  A
C451        C701   1.481       .  S
C451        C452   1.380       .  A
C452        H455   1.082       .  S
C452        C453   1.372       .  A
C453        H456   1.082       .  S
C453        C454   1.383       .  A
O457       Mg459   2.091       .  S
O457       Mg465   2.111       .  S
O457        C492   1.241       .  S
C458        O471   1.242       .  S
C458        O495   1.277       .  A
C458        H497   1.081       .  S
Mg459       O488   2.101       .  S
Mg459       O503   2.249       .  S
Mg459       O499   2.198       .  S
Mg459       O470   2.316       .  S
O460       Mg502   2.115       .  S
O460       Mg485   2.096       .  S
O460        C481   1.241       .  S
O461        C492   1.275       .  A
O461       Mg485   2.313       .  S
C462        O464   1.282       .  A
C462        O476   1.260       .  A
O463        C491   1.279       .  A
O463       Mg465   2.318       .  S
O464       Mg496   2.312       .  S
Mg465       O471   2.144       .  S
Mg465       O479   2.332       .  S
Mg465       O467   2.415       .  S
C466        O504   1.248       .  A
C466        O472   1.294       .  A
C466        N512   1.465       .  S
O467        C474   1.287       .  A
H468        C481   1.079       .  S
C469        O483   1.244       .  S
C469        O484   1.279       .  A
C469        H494   1.081       .  S
O470        C493   1.276       .  A
O471       Mg485   2.099       .  S
O472       Mg502   2.458       .  S
C473        C578   1.512       .  S
C473        O486   1.290       .  A
C473        O478   1.261       .  A
C474        O501   1.251       .  A
C474        N505   1.462       .  S
Mg475       O482   2.124       .  S
Mg475       O483   2.097       .  S
Mg475       O476   2.248       .  S
Mg475       O477   2.313       .  S
Mg475       O504   2.191       .  S
O477        C481   1.277       .  A
O478       Mg485   2.258       .  S
O479        C498   1.284       .  A
O480        C500   1.291       .  A
O480       Mg496   2.429       .  S
O482       Mg496   2.121       .  S
O482        C493   1.242       .  S
O483       Mg502   2.143       .  S
O484       Mg496   2.330       .  S
Mg485       O501   2.189       .  S
O486       Mg502   2.375       .  S
H487        C492   1.079       .  S
O488       Mg496   2.111       .  S
O488        C491   1.245       .  S
H489        C491   1.081       .  S
H490        C493   1.081       .  S
O495       Mg502   2.322       .  S
C498        O503   1.260       .  A
O499        C500   1.256       .  A
C500        N519   1.457       .  S
N505        C509   1.387       .  A
N505        C506   1.356       .  A
C506       C1022   1.478       .  S
C506        C507   1.379       .  A
C507        H510   1.082       .  S
C507        C508   1.377       .  A
C508        H511   1.082       .  S
C508        C509   1.386       .  A
C509        C542   1.504       .  S
N512        C516   1.399       .  A
N512        C513   1.361       .  A
C513        C725   1.489       .  S
C513        C514   1.379       .  A
C514        H517   1.082       .  S
C514        C515   1.380       .  A
C515        H518   1.082       .  S
C515        C516   1.385       .  A
N519        C523   1.385       .  A
N519        C520   1.358       .  A
C520        C806   1.478       .  S
C520        C521   1.378       .  A
C521        H524   1.082       .  S
C521        C522   1.374       .  A
C522        H525   1.082       .  S
C522        C523   1.384       .  A
O526       Mg528   2.109       .  S
O526       Mg534   2.120       .  S
O526        C561   1.245       .  S
C527        O540   1.243       .  S
C527        O564   1.277       .  A
C527        H566   1.081       .  S
Mg528       O557   2.095       .  S
Mg528       O572   2.244       .  S
Mg528       O568   2.190       .  S
Mg528       O539   2.319       .  S
O529       Mg571   2.116       .  S
O529       Mg554   2.101       .  S
O529        C550   1.238       .  S
O530        C561   1.280       .  A
O530       Mg554   2.332       .  S
C531        O533   1.287       .  A
C531        O545   1.261       .  A
O532        C560   1.276       .  A
O532       Mg534   2.317       .  S
O533       Mg565   2.339   1_545  S
Mg534       O540   2.143       .  S
Mg534       O548   2.330       .  S
Mg534       O536   2.420       .  S
C535        O573   1.257       .  A
C535        O541   1.297       .  A
C535        N588   1.465       .  S
O536        C543   1.286       .  A
H537        C550   1.077       .  S
C538        O552   1.245       .  S
C538        O553   1.279       .  A
C538        H563   1.080       .  S
O539        C562   1.276       .  A
O540       Mg554   2.095       .  S
O541       Mg571   2.475       .  S
C542        O555   1.288       .  A
C542        O547   1.258       .  A
C543        O570   1.248       .  A
C543        N574   1.463       .  S
Mg544       O551   2.117       .  S
Mg544       O552   2.092       .  S
Mg544       O545   2.261   1_565  S
Mg544       O546   2.304       .  S
Mg544       O573   2.193       .  S
O546        C550   1.274       .  A
O547       Mg554   2.238       .  S
O548        C567   1.283       .  A
O549        C569   1.296       .  A
O549       Mg565   2.470       .  S
O551       Mg565   2.110       .  S
O551        C562   1.241       .  S
O552       Mg571   2.119       .  S
O553       Mg565   2.322       .  S
Mg554       O570   2.190       .  S
O555       Mg571   2.345       .  S
H556        C561   1.080       .  S
O557       Mg565   2.123       .  S
O557        C560   1.243       .  S
H558        C560   1.081       .  S
H559        C562   1.080       .  S
O564       Mg571   2.325       .  S
C567        O572   1.259       .  A
O568        C569   1.249       .  A
C569        N581   1.463       .  S
N574        C578   1.387       .  A
N574        C575   1.358       .  A
C575       C1085   1.480       .  S
C575        C576   1.379       .  A
C576        H579   1.082       .  S
C576        C577   1.379       .  A
C577        H580   1.082       .  S
C577        C578   1.386       .  A
N581        C585   1.392       .  A
N581        C582   1.355       .  A
C582        C614   1.473       .  S
C582        C583   1.378       .  A
C583        H586   1.082       .  S
C583        C584   1.376       .  A
C584        H587   1.082       .  S
C584        C585   1.385       .  A
N588        C592   1.390       .  A
N588        C589   1.369       .  A
C589       C1166   1.495       .  S
C589        C590   1.384       .  A
C590        H593   1.081       .  S
C590        C591   1.371       .  A
C591        H594   1.083       .  S
C591        C592   1.380       .  A
C595        N596   1.359       .  A
C595        N600   1.357       .  A
C595        C605   1.481       .  S
N596        C597   1.358       .  A
C597        N598   1.356       .  A
C597        C653   1.467       .  S
N598        C599   1.356       .  A
C599        N600   1.357       .  A
C599        C638   1.488       .  S
C601        H611   1.082       .  S
C601        C602   1.398       .  A
C601        C606   1.394       .  A
C602        C607   1.477       .  S
C602        C603   1.412       .  A
C603        C604   1.401       .  A
C603        S608   1.804       .  S
C604        H609   1.084       .  S
C604        C605   1.406       .  A
C605        C606   1.417       .  A
C606        S610   1.799       .  S
C607        C612   1.408       .  A
C607        C616   1.403       .  A
S608        H624   1.405       .  S
S610        H621   1.406       .  S
C612        C613   1.402       .  A
C612        S617   1.807       .  S
C613        H618   1.083       .  S
C613        C614   1.403   1_545  A
C614        C615   1.409       .  A
C615        C616   1.399   1_565  A
C615        S619   1.804       .  S
C616        H620   1.083       .  S
S617        H622   1.407       .  S
S619        H623   1.404       .  S
C625        H635   1.084       .  S
C625        C626   1.404       .  A
C625        C630   1.398       .  A
C626        C631   1.474       .  S
C626        C627   1.413       .  A
C627        C628   1.396       .  A
C627        S632   1.805       .  S
C628        H633   1.084       .  S
C628        C629   1.399       .  A
C629        C630   1.406       .  A
C630        S634   1.799       .  S
C631        C636   1.406       .  A
C631        C640   1.398       .  A
S632        H648   1.405       .  S
S634        H645   1.405       .  S
C636        C637   1.401       .  A
C636        S641   1.807       .  S
C637        H642   1.082       .  S
C637        C638   1.410       .  A
C638        C639   1.420       .  A
C639        C640   1.400       .  A
C639        S643   1.805       .  S
C640        H644   1.084       .  S
S641        H646   1.407       .  S
S643        H647   1.406       .  S
C649        H659   1.084       .  S
C649        C650   1.402       .  A
C649        C654   1.401       .  A
C650        C655   1.474       .  S
C650        C651   1.411       .  A
C651        C652   1.396       .  A
C651        S656   1.803       .  S
C652        H657   1.084       .  S
C652        C653   1.400       .  A
C653        C654   1.412       .  A
C654        S658   1.804       .  S
C655        C660   1.408       .  A
C655        C664   1.399       .  A
S656        H672   1.403       .  S
S658        H669   1.405       .  S
C660        C661   1.402   1_556  A
C660        S665   1.801       .  S
C661        H666   1.081       .  S
C661        C662   1.402       .  A
C662        C663   1.416   1_554  A
C663        C664   1.395       .  A
C663        S667   1.801   1_556  S
C664        H668   1.084       .  S
S665        H670   1.406   1_556  S
S667        H671   1.403       .  S
C673        H683   1.084       .  S
C673        C674   1.401       .  A
C673        C678   1.395       .  A
C674        C679   1.469       .  S
C674        C675   1.408       .  A
C675        C676   1.396       .  A
C675        S680   1.803       .  S
C676        H681   1.084       .  S
C676        C677   1.405       .  A
C677        C678   1.412       .  A
C678        S682   1.799       .  S
C679        C684   1.404       .  A
C679        C688   1.401       .  A
S680        H696   1.406       .  S
S682        H693   1.405       .  S
C684        C685   1.395       .  A
C684        S689   1.807       .  S
C685        H690   1.083       .  S
C685        C686   1.405       .  A
C686        C687   1.416       .  A
C687        C688   1.399       .  A
C687        S691   1.805       .  S
C688        H692   1.084       .  S
S689        H694   1.407       .  S
S691        H695   1.401       .  S
C697        H707   1.081       .  S
C697        C698   1.402       .  A
C697        C702   1.400   1_565  A
C698        C703   1.477       .  S
C698        C699   1.411       .  A
C699        C700   1.398   1_565  A
C699        S704   1.804       .  S
C700        H705   1.084       .  S
C700        C701   1.403       .  A
C701        C702   1.412       .  A
C702        S706   1.802       .  S
C703        C708   1.408       .  A
C703        C712   1.394       .  A
S704        H720   1.406       .  S
S706        H717   1.407       .  S
C708        C709   1.409       .  A
C708        S713   1.804       .  S
C709        H714   1.082       .  S
C709        C710   1.409       .  A
C710        C711   1.419       .  A
C711        C712   1.391       .  A
C711        S715   1.794       .  S
C712        H716   1.085       .  S
S713        H718   1.407       .  S
S715        H719   1.403       .  S
C721        H731   1.082       .  S
C721        C722   1.408       .  A
C721        C726   1.402       .  A
C722        C727   1.498       .  S
C722        C723   1.420       .  A
C723        C724   1.402       .  A
C723        S728   1.805       .  S
C724        H729   1.084       .  S
C724        C725   1.400       .  A
C725        C726   1.409       .  A
C726        S730   1.796       .  S
C727        C732   1.413       .  A
C727        C736   1.407       .  A
S728        H744   1.407       .  S
S730        H741   1.405       .  S
C732        C733   1.397       .  A
C732        S737   1.797       .  S
C733        H738   1.079       .  S
C733        C734   1.398       .  A
C734        C735   1.416       .  A
C735        C736   1.403       .  A
C735        S739   1.802       .  S
C736        H740   1.084       .  S
S737        H742   1.406       .  S
S739        H743   1.407       .  S
C745        H755   1.084       .  S
C745        C746   1.404       .  A
C745        C750   1.402       .  A
C746        C751   1.478       .  S
C746        C747   1.413       .  A
C747        C748   1.396       .  A
C747        S752   1.805       .  S
C748        H753   1.085       .  S
C748        C749   1.399       .  A
C749        C750   1.411       .  A
C750        S754   1.803       .  S
C751        C756   1.407       .  A
C751        C760   1.399       .  A
S752        H768   1.401       .  S
S754        H765   1.406       .  S
C756        C757   1.403       .  A
C756        S761   1.800       .  S
C757        H762   1.083       .  S
C757        C758   1.405       .  A
C758        C759   1.419       .  A
C759        C760   1.398       .  A
C759        S763   1.804       .  S
C760        H764   1.084       .  S
S761        H766   1.405       .  S
S763        H767   1.405       .  S
C769        H779   1.083       .  S
C769        C770   1.400       .  A
C769        C774   1.399       .  A
C770        C775   1.479       .  S
C770        C771   1.410       .  A
C771        C772   1.400       .  A
C771        S776   1.804       .  S
C772        H777   1.083       .  S
C772        C773   1.409       .  A
C773        C774   1.420       .  A
C774        S778   1.801       .  S
C775        C780   1.408       .  A
C775        C784   1.400       .  A
S776        H792   1.406       .  S
S778        H789   1.407       .  S
C780        C781   1.404       .  A
C780        S785   1.805       .  S
C781        H786   1.083   1_556  S
C781        C782   1.403   1_556  A
C782        C783   1.409       .  A
C783        C784   1.398   1_554  A
C783        S787   1.798       .  S
C784        H788   1.081       .  S
S785        H790   1.407       .  S
S787        H791   1.405       .  S
C793        H803   1.084       .  S
C793        C794   1.399       .  A
C793        C798   1.400       .  A
C794        C799   1.483       .  S
C794        C795   1.415       .  A
C795        C796   1.402       .  A
C795        S800   1.805       .  S
C796        H801   1.084       .  S
C796        C797   1.406       .  A
C797        C798   1.416       .  A
C798        S802   1.802       .  S
C799        C804   1.411       .  A
C799        C808   1.404       .  A
S800        H816   1.403       .  S
S802        H813   1.402       .  S
C804        C805   1.404       .  A
C804        S809   1.807       .  S
C805        H810   1.083       .  S
C805        C806   1.403       .  A
C806        C807   1.406       .  A
C807        C808   1.400       .  A
C807        S811   1.797       .  S
C808        H812   1.084       .  S
S809        H814   1.407       .  S
S811        H815   1.405       .  S
C817        H827   1.083       .  S
C817        C818   1.400       .  A
C817        C822   1.397       .  A
C818        C823   1.474       .  S
C818        C819   1.411       .  A
C819        C820   1.396       .  A
C819        S824   1.805       .  S
C820        H825   1.084       .  S
C820        C821   1.406       .  A
C821        C822   1.415       .  A
C822        S826   1.801       .  S
C823        C828   1.408       .  A
C823        C832   1.404       .  A
S824        H840   1.406       .  S
S826        H837   1.405       .  S
C828        C829   1.396       .  A
C828        S833   1.808       .  S
C829        H834   1.083   1_554  S
C829        C830   1.401   1_554  A
C830        C831   1.409       .  A
C831        C832   1.398   1_556  A
C831        S835   1.803       .  S
C832        H836   1.082       .  S
S833        H838   1.407       .  S
S835        H839   1.405       .  S
C841        H851   1.084       .  S
C841        C842   1.399       .  A
C841        C846   1.400       .  A
C842        C847   1.474       .  S
C842        C843   1.408       .  A
C843        C844   1.397       .  A
C843        S848   1.804       .  S
C844        H849   1.083       .  S
C844        C845   1.409       .  A
C845        C846   1.420       .  A
C846        S850   1.805       .  S
C847        C852   1.407       .  A
C847        C856   1.402       .  A
S848        H864   1.406       .  S
S850        H861   1.406       .  S
C852        C853   1.401       .  A
C852        S857   1.806       .  S
C853        H858   1.083       .  S
C853        C854   1.402   1_655  A
C854        C855   1.411       .  A
C855        C856   1.397   1_455  A
C855        S859   1.801       .  S
C856        H860   1.082       .  S
S857        H862   1.407       .  S
S859        H863   1.405       .  S
C865        H875   1.084       .  S
C865        C866   1.398       .  A
C865        C870   1.396       .  A
C866        C871   1.474       .  S
C866        C867   1.411       .  A
C867        C868   1.399       .  A
C867        S872   1.805       .  S
C868        H873   1.084       .  S
C868        C869   1.408       .  A
C869        C870   1.416       .  A
C870        S874   1.800       .  S
C871        C876   1.407       .  A
C871        C880   1.402       .  A
S872        H888   1.405       .  S
S874        H885   1.406       .  S
C876        C877   1.401       .  A
C876        S881   1.806       .  S
C877        H882   1.083       .  S
C877        C878   1.403       .  A
C878        C879   1.408       .  A
C879        C880   1.396       .  A
C879        S883   1.799       .  S
C880        H884   1.083       .  S
S881        H886   1.407       .  S
S883        H887   1.403       .  S
C889        H899   1.084       .  S
C889        C890   1.404       .  A
C889        C894   1.399   1_554  A
C890        C895   1.476       .  S
C890        C891   1.412       .  A
C891        C892   1.397       .  A
C891        S896   1.804       .  S
C892        H897   1.084       .  S
C892        C893   1.400   1_554  A
C893        C894   1.407       .  A
C894        S898   1.802       .  S
C895        C900   1.404       .  A
C895        C904   1.397       .  A
S896        H912   1.405       .  S
S898        H909   1.401       .  S
C900        C901   1.400       .  A
C900        S905   1.804       .  S
C901        H906   1.079       .  S
C901        C902   1.410       .  A
C902        C903   1.425       .  A
C903        C904   1.398       .  A
C903        S907   1.800       .  S
C904        H908   1.084       .  S
S905        H910   1.407       .  S
S907        H911   1.407       .  S
C913        H923   1.083       .  S
C913        C914   1.400       .  A
C913        C918   1.399       .  A
C914        C919   1.473       .  S
C914        C915   1.407       .  A
C915        C916   1.394       .  A
C915        S920   1.806       .  S
C916        H921   1.082       .  S
C916        C917   1.408       .  A
C917        C918   1.419       .  A
C918        S922   1.800       .  S
C919        C924   1.406       .  A
C919        C928   1.402       .  A
S920        H936   1.406       .  S
S922        H933   1.401       .  S
C924        C925   1.398       .  A
C924        S929   1.807       .  S
C925        H930   1.083       .  S
C925        C926   1.402   1_545  A
C926        C927   1.414       .  A
C927        C928   1.397   1_565  A
C927        S931   1.805       .  S
C928        H932   1.084       .  S
S929        H934   1.407       .  S
S931        H935   1.402       .  S
C937        H947   1.083       .  S
C937        C938   1.397       .  A
C937        C942   1.399       .  A
C938        C943   1.474       .  S
C938        C939   1.408       .  A
C939        C940   1.399       .  A
C939        S944   1.807       .  S
C940        H945   1.083       .  S
C940        C941   1.411       .  A
C941        C942   1.422       .  A
C942        S946   1.805       .  S
C943        C948   1.407       .  A
C943        C952   1.401       .  A
S944        H960   1.402       .  S
S946        H957   1.406       .  S
C948        C949   1.401       .  A
C948        S953   1.805       .  S
C949        H954   1.083       .  S
C949        C950   1.403   1_455  A
C950        C951   1.409       .  A
C951        C952   1.398   1_655  A
C951        S955   1.798       .  S
C952        H956   1.082       .  S
S953        H958   1.407       .  S
S955        H959   1.403       .  S
C961        H971   1.081       .  S
C961        C962   1.403       .  A
C961        C966   1.399       .  A
C962        C967   1.478       .  S
C962        C963   1.411       .  A
C963        C964   1.398       .  A
C963        S968   1.804       .  S
C964        H969   1.084       .  S
C964        C965   1.402       .  A
C965        C966   1.409       .  A
C966        S970   1.801       .  S
C967        C972   1.404       .  A
C967        C976   1.397       .  A
S968        H984   1.406       .  S
S970        H981   1.403       .  S
C972        C973   1.403       .  A
C972        S977   1.807       .  S
C973        H978   1.081       .  S
C973        C974   1.413       .  A
C974        C975   1.425       .  A
C975        C976   1.402       .  A
C975        S979   1.808       .  S
C976        H980   1.083       .  S
S977        H982   1.407       .  S
S979        H983   1.407       .  S
C985        H995   1.084       .  S
C985        C986   1.404       .  A
C985        C990   1.401       .  A
C986        C991   1.481       .  S
C986        C987   1.410       .  A
C987        C988   1.395       .  A
C987        S992   1.804       .  S
C988        H993   1.082       .  S
C988        C989   1.407       .  A
C989        C990   1.417       .  A
C990        S994   1.802       .  S
C991        C996   1.411       .  A
C991       C1000   1.401       .  A
S992       H1008   1.406       .  S
S994       H1005   1.407       .  S
C996        C997   1.404       .  A
C996       S1001   1.806       .  S
C997       H1002   1.083       .  S
C997        C998   1.403   1_655  A
C998        C999   1.412       .  A
C999       C1000   1.395   1_455  A
C999       S1003   1.803       .  S
C1000      H1004   1.083       .  S
S1001      H1006   1.407       .  S
S1003      H1007   1.397       .  S
C1009      H1019   1.082       .  S
C1009      C1010   1.397       .  A
C1009      C1014   1.399       .  A
C1010      C1015   1.478       .  S
C1010      C1011   1.410       .  A
C1011      C1012   1.402       .  A
C1011      S1016   1.805       .  S
C1012      H1017   1.083       .  S
C1012      C1013   1.409       .  A
C1013      C1014   1.418       .  A
C1014      S1018   1.801       .  S
C1015      C1020   1.407       .  A
C1015      C1024   1.401       .  A
S1016      H1032   1.403       .  S
S1018      H1029   1.405       .  S
C1020      C1021   1.402       .  A
C1020      S1025   1.806       .  S
C1021      H1026   1.083       .  S
C1021      C1022   1.404       .  A
C1022      C1023   1.411       .  A
C1023      C1024   1.399       .  A
C1023      S1027   1.801       .  S
C1024      H1028   1.081       .  S
S1025      H1030   1.407       .  S
S1027      H1031   1.400       .  S
C1033      H1043   1.084       .  S
C1033      C1034   1.401       .  A
C1033      C1038   1.400       .  A
C1034      C1039   1.480       .  S
C1034      C1035   1.407       .  A
C1035      C1036   1.400       .  A
C1035      S1040   1.804       .  S
C1036      H1041   1.083       .  S
C1036      C1037   1.411       .  A
C1037      C1038   1.419       .  A
C1038      S1042   1.800       .  S
C1039      C1044   1.407       .  A
C1039      C1048   1.405       .  A
S1040      H1056   1.406       .  S
S1042      H1053   1.407       .  S
C1044      C1045   1.401   1_565  A
C1044      S1049   1.806       .  S
C1045      H1050   1.083       .  S
C1045      C1046   1.404       .  A
C1046      C1047   1.411       .  A
C1047      C1048   1.400   1_545  A
C1047      S1051   1.804       .  S
C1048      H1052   1.083       .  S
S1049      H1054   1.407       .  S
S1051      H1055   1.404       .  S
C1057      H1067   1.084       .  S
C1057      C1058   1.400       .  A
C1057      C1062   1.404       .  A
C1058      C1063   1.482       .  S
C1058      C1059   1.409       .  A
C1059      C1060   1.398       .  A
C1059      S1064   1.805       .  S
C1060      H1065   1.083       .  S
C1060      C1061   1.411       .  A
C1061      C1062   1.421       .  A
C1062      S1066   1.798       .  S
C1063      C1068   1.411       .  A
C1063      C1072   1.400       .  A
S1064      H1080   1.403       .  S
S1066      H1077   1.408       .  S
C1068      C1069   1.404   1_455  A
C1068      S1073   1.804       .  S
C1069      H1074   1.082       .  S
C1069      C1070   1.403       .  A
C1070      C1071   1.415   1_655  A
C1071      C1072   1.400       .  A
C1071      S1075   1.804       .  S
C1072      H1076   1.084       .  S
S1073      H1078   1.407   1_455  S
S1075      H1079   1.406   1_455  S
C1081      H1091   1.084       .  S
C1081      C1082   1.402       .  A
C1081      C1086   1.395       .  A
C1082      C1087   1.488       .  S
C1082      C1083   1.418       .  A
C1083      C1084   1.405       .  A
C1083      S1088   1.804       .  S
C1084      H1089   1.083       .  S
C1084      C1085   1.402       .  A
C1085      C1086   1.410       .  A
C1086      S1090   1.804       .  S
C1087      C1092   1.412       .  A
C1087      C1096   1.397       .  A
S1088      H1104   1.405       .  S
S1090      H1101   1.405       .  S
C1092      C1093   1.403       .  A
C1092      S1097   1.808       .  S
C1093      H1098   1.082       .  S
C1093      C1094   1.408       .  A
C1094      C1095   1.424       .  A
C1095      C1096   1.398       .  A
C1095      S1099   1.802       .  S
C1096      H1100   1.080       .  S
S1097      H1102   1.406       .  S
S1099      H1103   1.399       .  S
C1105      H1115   1.082       .  S
C1105      C1106   1.403       .  A
C1105      C1110   1.398       .  A
C1106      C1111   1.475       .  S
C1106      C1107   1.411       .  A
C1107      C1108   1.399       .  A
C1107      S1112   1.805       .  S
C1108      H1113   1.084       .  S
C1108      C1109   1.402       .  A
C1109      C1110   1.407       .  A
C1110      S1114   1.800       .  S
C1111      C1116   1.405       .  A
C1111      C1120   1.397       .  A
S1112      H1128   1.403       .  S
S1114      H1125   1.404       .  S
C1116      C1117   1.402       .  A
C1116      S1121   1.807       .  S
C1117      H1122   1.082       .  S
C1117      C1118   1.410       .  A
C1118      C1119   1.424       .  A
C1119      C1120   1.401       .  A
C1119      S1123   1.807       .  S
C1120      H1124   1.084       .  S
S1121      H1126   1.407       .  S
S1123      H1127   1.407       .  S
C1129      H1139   1.083       .  S
C1129      C1130   1.397       .  A
C1129      C1134   1.394       .  A
C1130      C1135   1.467       .  S
C1130      C1131   1.411       .  A
C1131      C1132   1.397       .  A
C1131      S1136   1.799       .  S
C1132      H1137   1.084       .  S
C1132      C1133   1.400       .  A
C1133      C1134   1.413       .  A
C1134      S1138   1.810       .  S
C1135      C1140   1.407       .  A
C1135      C1144   1.398       .  A
S1136      H1152   1.403       .  S
S1138      H1149   1.406       .  S
C1140      C1141   1.401       .  A
C1140      S1145   1.805       .  S
C1141      H1146   1.083       .  S
C1141      C1142   1.402       .  A
C1142      C1143   1.413       .  A
C1143      C1144   1.396       .  A
C1143      S1147   1.803       .  S
C1144      H1148   1.084       .  S
S1145      H1150   1.407       .  S
S1147      H1151   1.406       .  S
C1153      H1163   1.084       .  S
C1153      C1154   1.403       .  A
C1153      C1158   1.397       .  A
C1154      C1159   1.488       .  S
C1154      C1155   1.415       .  A
C1155      C1156   1.402       .  A
C1155      S1160   1.803       .  S
C1156      H1161   1.084       .  S
C1156      C1157   1.404       .  A
C1157      C1158   1.413       .  A
C1158      S1162   1.798       .  S
C1159      C1164   1.410       .  A
C1159      C1168   1.402       .  A
S1160      H1176   1.406       .  S
S1162      H1173   1.407       .  S
C1164      C1165   1.402       .  A
C1164      S1169   1.808       .  S
C1165      H1170   1.082       .  S
C1165      C1166   1.406       .  A
C1166      C1167   1.424       .  A
C1167      C1168   1.400       .  A
C1167      S1171   1.810       .  S
C1168      H1172   1.084       .  S
S1169      H1174   1.407       .  S
S1171      H1175   1.403       .  S
