geometry optimzed in LAMMPS
_audit_creation_date              2020-11-30 
_audit_creation_method            'lammps2cif' 
_symmetry_space_group_name_H-M    'P1' 
_symmetry_Int_Tables_number       1 
_symmetry_cell_setting            triclinic 
loop_ 
_symmetry_equiv_pos_as_xyz 
  x,y,z 
_cell_length_a                    44.70275602 
_cell_length_b                    38.81178778929538 
_cell_length_c                    34.458747025828806 
_cell_angle_alpha                 90.11011623452927 
_cell_angle_beta                  89.52596899016386 
_cell_angle_gamma                 90.70289074658389 
loop_ 
_atom_site_label 
_atom_site_type_symbol 
_atom_site_fract_x 
_atom_site_fract_y 
_atom_site_fract_z 
_atom_site_charge 
C1          C  0.97162225  0.05259560  0.10654564     0.80800
N2          N  0.98151654  0.07423930  0.13505863    -0.77500
C3          C  0.00971304  0.07086444  0.14912812     0.83200
N4          N  0.02760740  0.04640673  0.13409051    -0.77500
C5          C  0.01881329  0.02560443  0.10488142     0.83300
N6          N  0.99071859  0.02915094  0.09061656    -0.79200
Zn7        Zn  0.82499244  0.46116842  0.02388685     1.49700
Zn8        Zn  0.81792514  0.03239072  0.46760773     1.49400
Zn9        Zn  0.82505152  0.45591752  0.43378721     1.49100
Zn10       Zn  0.76391263  0.47265146  0.98095094     1.49500
O11         O  0.80699908  0.47986600  0.97834545    -1.83600
O12         O  0.84845745  0.49727804  0.05104386    -0.74200
O13         O  0.85107314  0.53192653  0.42312815    -0.74000
O14         O  0.86088288  0.43208061  0.94648650    -0.73500
O15         O  0.84474732  0.05248790  0.00955555    -0.74200
O16         O  0.85772982  0.42816661  0.01073028    -0.73800
O17         O  0.83918578  0.48550162  0.38870053    -0.74400
O18         O  0.75379454  0.42627332  0.95194533    -0.73800
O19         O  0.78133895  0.05800221  0.44893544    -0.74500
O20         O  0.79601678  0.41796623  0.41741414    -0.73900
O21         O  0.74712086  0.01757662  0.94928358    -0.74400
O22         O  0.75167234  0.46635512  0.04047057    -0.74300
O23         O  0.79416953  0.44386533  0.06197739    -0.74100
C24         C  0.85731428  0.03765112  0.03801773     0.77700
C25         C  0.85455508  0.51307216  0.39332443     0.78200
C26         C  0.87143033  0.42249739  0.97883882     0.77100
C27         C  0.76945474  0.40932326  0.42773960     0.77500
C28         C  0.75518725  0.04739311  0.43948505     0.78700
C29         C  0.76669028  0.45125329  0.06718482     0.77700
C30         C  0.75640720  0.37667002  0.41087721     0.03700
C31         C  0.76548892  0.36660107  0.37328500    -0.12500
C32         C  0.75646842  0.33494148  0.35667785     0.01200
C33         C  0.73849658  0.31226841  0.37910233    -0.11000
C34         C  0.72927403  0.32123221  0.41725490     0.03700
C35         C  0.73762748  0.35396798  0.43242759    -0.10400
H36         H  0.78011169  0.38362255  0.35668867     0.09300
H37         H  0.73219503  0.28736623  0.36724488     0.06800
H38         H  0.73072246  0.36097142  0.46156817     0.06600
C39         C  0.00704317  0.31370308  0.04507403     0.80800
N40         N  0.98696993  0.29074284  0.06104668    -0.77500
C41         C  0.95746420  0.29219048  0.05175596     0.83200
N42         N  0.94857226  0.31642388  0.02658823    -0.77500
C43         C  0.96776615  0.33979485  0.01129311     0.83300
N44         N  0.99717135  0.33922904  0.02128575    -0.79200
Zn45       Zn  0.12025510  0.24307308  0.18486722     1.49700
Zn46       Zn  0.16331039  0.18513980  0.15785970     1.49400
Zn47       Zn  0.17937543  0.26655079  0.14432920     1.49100
Zn48       Zn  0.17480541  0.23094207  0.23182427     1.49500
O49         O  0.16131420  0.23137266  0.17879169    -1.83600
O50         O  0.09397946  0.20192006  0.18887264    -0.74200
O51         O  0.17956659  0.18801070  0.10319852    -0.74000
O52         O  0.14575517  0.29330393  0.11444382    -0.73500
O53         O  0.12219527  0.16155108  0.16173490    -0.74200
O54         O  0.10581573  0.26713420  0.13991171    -0.73800
O55         O  0.20082912  0.24032261  0.09939660    -0.74400
O56         O  0.20397231  0.27070100  0.23664116    -0.73800
O57         O  0.19117296  0.15495569  0.18854325    -0.74500
O58         O  0.20736399  0.29807356  0.17964124    -0.73900
O59         O  0.19465371  0.18442098  0.24376726    -0.74400
O60         O  0.13933520  0.23956174  0.26965468    -0.74300
O61         O  0.11234699  0.27162904  0.23089960    -0.74100
C62         C  0.09740131  0.17147910  0.17640711     0.77700
C63         C  0.19564207  0.21025610  0.08500084     0.78200
C64         C  0.11755542  0.28686812  0.11483759     0.77100
C65         C  0.21447195  0.29529093  0.21572850     0.77500
C66         C  0.19989067  0.15737426  0.22352250     0.78700
C67         C  0.11682463  0.25897250  0.26412031     0.77700
C68         C  0.21703951  0.09026184  0.29938663     0.03700
C69         C  0.23432647  0.06676746  0.27811323    -0.12500
C70         C  0.24144236  0.07240659  0.23832828     0.01200
C71         C  0.23082601  0.10265627  0.22041344    -0.11000
C72         C  0.21413156  0.12706155  0.24197198     0.03700
C73         C  0.20777070  0.12056427  0.28123901    -0.10400
H74         H  0.24107655  0.04327990  0.29233527     0.09300
H75         H  0.23543104  0.10718627  0.18993123     0.06800
H76         H  0.19388037  0.13837695  0.29737192     0.06600
C77         C  0.96837985  0.21574987  0.36461853     0.80800
N78         N  0.99009118  0.23848563  0.35253494    -0.77500
C79         C  0.01870724  0.23549498  0.36536585     0.83200
N80         N  0.02493550  0.20984301  0.39015672    -0.77500
C81         C  0.00400326  0.18666511  0.40166727     0.83300
N82         N  0.97565044  0.18888994  0.38801951    -0.79200
Zn83       Zn  0.76530635  0.30415725  0.23143397     1.49700
Zn84       Zn  0.82163893  0.25143937  0.21914404     1.49400
Zn85       Zn  0.82296267  0.32491411  0.18210578     1.49100
Zn86       Zn  0.82752052  0.31689004  0.27305838     1.49500
O87         O  0.80867782  0.29905825  0.22714554    -1.83600
O88         O  0.74791696  0.26055472  0.20127731    -0.74200
O89         O  0.85388949  0.25204986  0.17768392    -0.74000
O90         O  0.79234081  0.35937697  0.16453179    -0.73500
O91         O  0.78586398  0.22328331  0.19801098    -0.74200
O92         O  0.75307682  0.35029196  0.20338737    -0.73800
O93         O  0.83839417  0.29394014  0.13938329    -0.74400
O94         O  0.85937267  0.35204805  0.26034751    -0.73800
O95         O  0.84467527  0.23175156  0.26575156    -0.74500
O96         O  0.85985262  0.35213727  0.19594004    -0.73900
O97         O  0.85163020  0.28064146  0.29795627    -0.74400
O98         O  0.79720297  0.33241661  0.31259042    -0.74300
O99         O  0.75409149  0.30996299  0.29140272    -0.74100
C100        C  0.75883009  0.23141462  0.19031474     0.77700
C101        C  0.85623821  0.26939871  0.14652300     0.78200
C102        C  0.76651648  0.36805916  0.17694900     0.77100
C103        C  0.87135775  0.36082621  0.22814162     0.77500
C104        C  0.85728303  0.24897480  0.29291517     0.78700
C105        C  0.76961240  0.32496493  0.31808800     0.77700
C106        C  0.75311581  0.40002790  0.16001289     0.03700
C107        C  0.73529797  0.42296217  0.18199379    -0.12500
C108        C  0.72736396  0.45556464  0.16683280     0.01200
C109        C  0.73617465  0.46424440  0.12840515    -0.11000
C110        C  0.75321018  0.44131513  0.10561805     0.03700
C111        C  0.76158048  0.40968199  0.12202945    -0.10400
H112        H  0.72881123  0.41624461  0.21140334     0.09300
H113        H  0.73030804  0.48910263  0.11661811     0.06800
H114        H  0.77555303  0.39254452  0.10509916     0.06600
C115        C  0.00343879  0.47889448  0.28974719     0.80800
N116        N  0.98327120  0.50106592  0.30578393    -0.77500
C117        C  0.95416457  0.50013727  0.29434604     0.83200
N118        N  0.94575072  0.47665219  0.26754576    -0.77500
C119        C  0.96500774  0.45354043  0.25276006     0.83300
N120        N  0.99397272  0.45411925  0.26445257    -0.79200
Zn121      Zn  0.15548411  0.00374061  0.43236111     1.49700
Zn122      Zn  0.20821345  0.06150243  0.42308946     1.49400
Zn123      Zn  0.14680408  0.07074408  0.38255456     1.49100
Zn124      Zn  0.15028881  0.07455217  0.47320955     1.49500
O125        O  0.16565492  0.05219075  0.42717795    -1.83600
O126        O  0.19111756  0.48044418  0.44876481    -0.74200
O127        O  0.21955667  0.06630429  0.36428211    -0.74000
O128        O  0.12260098  0.03455390  0.35651741    -0.73500
O129        O  0.22777827  0.02107755  0.45321233    -0.74200
O130        O  0.13110479  0.98493519  0.38632488    -0.73800
O131        O  0.17675686  0.08877721  0.34389793    -0.74400
O132        O  0.11069033  0.09525330  0.46066639    -0.73800
O133        O  0.21759799  0.10895814  0.44906744    -0.74500
O134        O  0.11434125  0.10326430  0.39700070    -0.73900
O135        O  0.17833944  0.11350883  0.48881009    -0.74400
O136        O  0.13838911  0.04058448  0.51544137    -0.74300
O137        O  0.12447001  0.99950635  0.47442771    -0.74100
C138        C  0.21698772  0.49172640  0.45893084     0.77700
C139        C  0.20415590  0.08137312  0.33811438     0.78200
C140        C  0.11720322  0.00264965  0.36107380     0.77100
C141        C  0.09991488  0.10574433  0.42888775     0.77500
C142        C  0.20315020  0.12536003  0.47533536     0.78700
C143        C  0.12145313  0.01508163  0.50661074     0.77700
C144        C  0.21440725  0.15909653  0.49107961     0.03700
C145        C  0.23195541  0.18287190  0.46905304    -0.12500
C146        C  0.23931873  0.21586708  0.48444854     0.01200
C147        C  0.22886553  0.22434449  0.52223531    -0.11000
C148        C  0.20794974  0.20045547  0.04598692     0.03700
C149        C  0.20497699  0.16858015  0.52860900    -0.10400
H150        H  0.23939290  0.17597008  0.44011208     0.09300
H151        H  0.23137243  0.24817557  0.03659255     0.06800
H152        H  0.18661457  0.15048344  0.04632999     0.06600
C153        C  0.50042065  0.30734063  0.11456279     0.80800
N154        N  0.49021273  0.33054965  0.14130642    -0.77500
C155        C  0.46103591  0.32893195  0.15317001     0.83200
N156        N  0.44264221  0.30501439  0.13746768    -0.77500
C157        C  0.45182336  0.28304247  0.10973533     0.83300
N158        N  0.48091849  0.28449553  0.09788356    -0.79200
Zn159      Zn  0.70471361  0.22364568  0.97969084     1.49700
Zn160      Zn  0.64689568  0.27661011  0.46781999     1.49400
Zn161      Zn  0.64510194  0.20365145  0.42899938     1.49100
Zn162      Zn  0.64259882  0.21283319  0.02325026     1.49500
O163        O  0.66144734  0.22948748  0.97627617    -1.83600
O164        O  0.72201590  0.26728467  0.95006418    -0.74200
O165        O  0.61537978  0.27779172  0.42601719    -0.74000
O166        O  0.67560402  0.17000513  0.40928735    -0.73500
O167        O  0.68329206  0.30500194  0.44856946    -0.74200
O168        O  0.71636225  0.17737299  0.95061436    -0.73800
O169        O  0.62834830  0.23455678  0.38742451    -0.74400
O170        O  0.61108480  0.17750628  0.01035756    -0.73800
O171        O  0.62515016  0.29709326  0.01382937    -0.74500
O172        O  0.61161342  0.17645839  0.94579509    -0.73900
O173        O  0.61825100  0.24955609  0.04860519    -0.74400
O174        O  0.67302161  0.19738373  0.06249696    -0.74300
O175        O  0.71645932  0.21788736  0.03933083    -0.74100
C176        C  0.71023490  0.29650644  0.44031563     0.77700
C177        C  0.61199657  0.26042291  0.39500643     0.78200
C178        C  0.70065083  0.16009377  0.42240876     0.77100
C179        C  0.59988137  0.16802203  0.97811021     0.77500
C180        C  0.61256993  0.28099044  0.04199213     0.78700
C181        C  0.70086295  0.20391043  0.06687929     0.77700
C182        C  0.71211051  0.08407780  0.35343902     0.03700
C183        C  0.72800669  0.06116758  0.37729848    -0.12500
C184        C  0.73668054  0.07093115  0.41536111     0.01200
C185        C  0.72983247  0.10440792  0.42895004    -0.11000
C186        C  0.71311608  0.12728083  0.40611272     0.03700
C187        C  0.70459476  0.11664302  0.36857183    -0.10400
H188        H  0.73334587  0.03571968  0.36650128     0.09300
H189        H  0.73635714  0.11198432  0.45798004     0.06800
H190        H  0.69135950  0.13375834  0.35099217     0.06600
C191        C  0.46756365  0.04860948  0.03791649     0.80800
N192        N  0.47812736  0.07390939  0.01401647    -0.77500
C193        C  0.50736993  0.07430552  0.00324065     0.83200
N194        N  0.52604205  0.05078949  0.01797161    -0.77500
C195        C  0.51656007  0.02657046  0.04337434     0.83300
N196        N  0.48698519  0.02546238  0.05353277    -0.79200
Zn197      Zn  0.34984844  0.49799923  0.17964260     1.49700
Zn198      Zn  0.29688628  0.48424041  0.22867782     1.49400
Zn199      Zn  0.29322573  0.01787222  0.14327925     1.49100
Zn200      Zn  0.30817070  0.43929270  0.15426269     1.49500
O201        O  0.30906937  0.48505244  0.17515864    -1.83600
O202        O  0.35682750  0.53097541  0.22158892    -0.74200
O203        O  0.26896584  0.02058415  0.23684705    -0.74000
O204        O  0.32806522  0.04213831  0.11126358    -0.73500
O205        O  0.33300487  0.49704213  0.26324888    -0.74200
O206        O  0.36444129  0.51756201  0.13205581    -0.73800
O207        O  0.26740556  0.04980158  0.18085330    -0.74400
O208        O  0.29133691  0.44216050  0.10022623    -0.73800
O209        O  0.27897382  0.43582147  0.24205764    -0.74500
O210        O  0.26835887  0.49299040  0.09795140    -0.73900
O211        O  0.28108507  0.40780598  0.18567182    -0.74400
O212        O  0.34979228  0.41767199  0.15832901    -0.74300
O213        O  0.37610800  0.45841393  0.18860451    -0.74100
C214        C  0.35383228  0.51899490  0.25551610     0.77700
C215        C  0.26002145  0.04624672  0.21701024     0.78200
C216        C  0.35557513  0.03313378  0.11048811     0.77100
C217        C  0.27429383  0.46342763  0.08299037     0.77500
C218        C  0.27367291  0.40886721  0.22139140     0.78700
C219        C  0.37359808  0.42808063  0.17532703     0.77700
C220        C  0.26328616  0.33645650  0.29418628     0.03700
C221        C  0.27030927  0.36860823  0.27742175    -0.12500
C222        C  0.26119698  0.37689742  0.23969352     0.01200
C223        C  0.24362057  0.35268367  0.21863758    -0.11000
C224        C  0.23491286  0.32083421  0.23552472     0.03700
C225        C  0.24533696  0.31311569  0.27321387    -0.10400
H226        H  0.28446895  0.38670680  0.29295671     0.09300
H227        H  0.23660943  0.35875790  0.18945443     0.06800
H228        H  0.23969454  0.28852837  0.28633759     0.06600
C229        C  0.46493970  0.22385813  0.28658929     0.80800
N230        N  0.47559258  0.19801008  0.26359439    -0.77500
C231        C  0.50536383  0.19703301  0.25498671     0.83200
N232        N  0.52416832  0.22038303  0.27100325    -0.77500
C233        C  0.51429028  0.24498386  0.29544948     0.83300
N234        N  0.48447404  0.24667426  0.30337586    -0.79200
Zn235      Zn  0.29817186  0.30647947  0.47830872     1.49700
Zn236      Zn  0.29310178  0.27055551  0.39094069     1.49400
Zn237      Zn  0.30836542  0.35209267  0.40475523     1.49100
Zn238      Zn  0.35098050  0.29504224  0.42781708     1.49500
O239        O  0.31015279  0.30616215  0.42464240    -1.83600
O240        O  0.26852347  0.26728737  0.48356393    -0.74200
O241        O  0.27123834  0.29690994  0.34714579    -0.74000
O242        O  0.28028791  0.38139654  0.43609618    -0.73500
O243        O  0.26610672  0.23845060  0.42731143    -0.74200
O244        O  0.28042968  0.35457264  0.49308376    -0.73800
O245        O  0.29236615  0.34945823  0.35016614    -0.74400
O246        O  0.37602235  0.33572146  0.43951370    -0.73800
O247        O  0.32730554  0.24428602  0.36055965    -0.74500
O248        O  0.34897703  0.37630228  0.41168672    -0.73900
O249        O  0.36610678  0.27609710  0.37953063    -0.74400
O250        O  0.35796627  0.26157781  0.46896939    -0.74300
O251        O  0.33409637  0.29304104  0.51253925    -0.74100
C252        C  0.25882032  0.24181550  0.46344016     0.77700
C253        C  0.27609514  0.32703707  0.33267701     0.78200
C254        C  0.27391914  0.38076723  0.47214625     0.77100
C255        C  0.37270692  0.36662864  0.42884160     0.77500
C256        C  0.35482857  0.25365039  0.35721562     0.78700
C257        C  0.35482756  0.27185856  0.50359952     0.77700
C258        C  0.26098052  0.41255078  0.48984215     0.03700
C259        C  0.26895238  0.42213836  0.52770205    -0.12500
C260        C  0.26195951  0.45295886  0.04436035     0.01200
C261        C  0.24577882  0.47800774  0.51969058    -0.11000
C262        C  0.23644893  0.46846376  0.48196974     0.03700
C263        C  0.24422790  0.43574683  0.46740965    -0.10400
H264        H  0.28231247  0.40265209  0.04615998     0.09300
H265        H  0.23967983  0.50095431  0.03230665     0.06800
H266        H  0.23770357  0.42862504  0.43822774     0.06600
C267        C  0.49675089  0.48084828  0.36379835     0.80800
N268        N  0.47793076  0.50240149  0.34478216    -0.77500
C269        C  0.44990341  0.50807183  0.35891900     0.83200
N270        N  0.44102840  0.49129057  0.39124520    -0.77500
C271        C  0.45846346  0.46830938  0.40930758     0.83300
N272        N  0.48664214  0.46295803  0.39541233    -0.79200
Zn273      Zn  0.64844401  0.99802050  0.21601911     1.49700
Zn274      Zn  0.64637942  0.07138639  0.17855227     1.49400
Zn275      Zn  0.64198807  0.06331613  0.27018101     1.49100
Zn276      Zn  0.70398392  0.05336339  0.22829407     1.49500
O277        O  0.66077688  0.04622391  0.22369264    -1.83600
O278        O  0.61772603  0.99589604  0.17325276    -0.74200
O279        O  0.60925288  0.09733316  0.19339028    -0.74000
O280        O  0.61830062  0.02625725  0.29568693    -0.73500
O281        O  0.63116267  0.03983794  0.13561246    -0.74200
O282        O  0.62448799  0.97802097  0.26207538    -0.73800
O283        O  0.60988721  0.09699868  0.25784222    -0.74400
O284        O  0.71496959  0.05925401  0.28810592    -0.73800
O285        O  0.67684837  0.10736605  0.16099952    -0.74500
O286        O  0.67170840  0.08027363  0.30964228    -0.73900
O287        O  0.71566284  0.10011806  0.20006046    -0.74400
O288        O  0.72214177  0.01035093  0.19917368    -0.74300
O289        O  0.68145092  0.47127090  0.19728126    -0.74100
C290        C  0.61481987  0.01327849  0.14229511     0.77700
C291        C  0.59779260  0.10545439  0.22598443     0.78200
C292        C  0.61226619  0.99464609  0.28991043     0.77100
C293        C  0.69923962  0.07363948  0.31498511     0.77500
C294        C  0.70229123  0.11737115  0.17369793     0.78700
C295        C  0.70862661  0.48003766  0.18999286     0.77700
C296        C  0.71431067  0.19360111  0.10496283     0.03700
C297        C  0.73126810  0.21648869  0.12832561    -0.12500
C298        C  0.74045002  0.20686956  0.16616048     0.01200
C299        C  0.73294247  0.17339892  0.17999034    -0.11000
C300        C  0.71520169  0.15047658  0.15757155     0.03700
C301        C  0.70633172  0.16110569  0.12030225    -0.10400
H302        H  0.73683111  0.24196248  0.11744772     0.09300
H303        H  0.73964817  0.16593730  0.20888630     0.06800
H304        H  0.69242807  0.14399011  0.10305030     0.06600
C305        C  0.53061788  0.46575479  0.30873126    -0.20800
C306        C  0.52701760  0.47482555  0.34790964    -0.08800
C307        C  0.55390303  0.98942654  0.36847432     0.30100
C308        C  0.58207303  0.99305203  0.35086573    -0.20800
C309        C  0.58762740  0.97946580  0.31359812    -0.08800
C310        C  0.55904360  0.46596223  0.29135697     0.30100
F311        F  0.56126605  0.46022218  0.25255943    -0.19300
H312        H  0.51119338  0.46021287  0.29107502     0.18400
H313        H  0.59887454  0.00887527  0.36505108     0.18400
F314        F  0.54854006  0.00533045  0.40290860    -0.19300
C315        C  0.39080538  0.42520412  0.44687898    -0.20800
C316        C  0.39724278  0.39139126  0.43587130    -0.08800
C317        C  0.42723761  0.38200816  0.42966943     0.30100
C318        C  0.44966292  0.40742951  0.42804831    -0.20800
C319        C  0.44229094  0.44223383  0.43290666    -0.08800
C320        C  0.41336981  0.45031443  0.44676136     0.30100
F321        F  0.40581349  0.48345104  0.45431640    -0.19300
H322        H  0.36802529  0.43254859  0.45356649     0.18400
H323        H  0.47176730  0.40028132  0.41803463     0.18400
F324        F  0.43435900  0.34902485  0.42069223    -0.19300
C325        C  0.52313724  0.13812851  0.26099647    -0.20800
C326        C  0.51959077  0.16703564  0.23726713    -0.08800
C327        C  0.53932026  0.17223505  0.20574528     0.30100
C328        C  0.56386604  0.15064358  0.20043182    -0.20800
C329        C  0.56941392  0.12435884  0.22721217    -0.08800
C330        C  0.54806200  0.11713720  0.25639958     0.30100
F331        F  0.55213858  0.09092183  0.28178684    -0.19300
H332        H  0.50857951  0.13416724  0.28595659     0.18400
H333        H  0.57980332  0.15622214  0.17734563     0.18400
F334        F  0.53667827  0.20041185  0.18280773    -0.19300
C335        C  0.41734934  0.20096859  0.31666894    -0.20800
C336        C  0.43260666  0.22665494  0.29531884    -0.08800
C337        C  0.41794464  0.25749895  0.28713801     0.30100
C338        C  0.38960108  0.26376261  0.30283596    -0.20800
C339        C  0.37552456  0.23972725  0.32763004    -0.08800
C340        C  0.38904417  0.20755837  0.33312581     0.30100
F341        F  0.37663895  0.18427396  0.35799958    -0.19300
H342        H  0.42842737  0.17707376  0.32344951     0.18400
H343        H  0.37996250  0.28899958  0.29889565     0.18400
F344        F  0.43202292  0.28263435  0.26630841    -0.19300
C345        C  0.39624537  0.52212782  0.34918879    -0.20800
C346        C  0.42602723  0.52357432  0.33504639    -0.08800
C347        C  0.43090587  0.53236331  0.29594993     0.30100
C348        C  0.40660340  0.53446857  0.27079142    -0.20800
C349        C  0.37725623  0.52734196  0.28407020    -0.08800
C350        C  0.37210612  0.52317899  0.32387337     0.30100
F351        F  0.34399865  0.51773640  0.33796715    -0.19300
H352        H  0.39147128  0.51672785  0.37945497     0.18400
H353        H  0.41112088  0.53846178  0.24017479     0.18400
F354        F  0.45902438  0.53575352  0.28117062    -0.19300
C355        C  0.59418322  0.00666140  0.07551520    -0.20800
C356        C  0.58992917  0.00488426  0.11572965    -0.08800
C357        C  0.56061798  0.00082678  0.13061264     0.30100
C358        C  0.53591018  0.00320429  0.10593373    -0.20800
C359        C  0.54014672  0.00913529  0.06607032    -0.08800
C360        C  0.56957773  0.00783585  0.05075408     0.30100
F361        F  0.57470836  0.01134513  0.01204903    -0.19300
H362        H  0.61655357  0.00914279  0.06341976     0.18400
H363        H  0.51368404  0.00402998  0.11863129     0.18400
F364        F  0.55573852  0.99887739  0.16949097    -0.19300
C365        C  0.41947206  0.01673500  0.04568199    -0.20800
C366        C  0.43555725  0.04768997  0.04889272    -0.08800
C367        C  0.42116605  0.07690703  0.06422270     0.30100
C368        C  0.39210926  0.07389978  0.07991440    -0.20800
C369        C  0.37686276  0.04208244  0.07921945    -0.08800
C370        C  0.39023005  0.01408448  0.05991640     0.30100
F371        F  0.37634005  0.98276026  0.05946360    -0.19300
H372        H  0.43007363  0.99407978  0.03362105     0.18400
H373        H  0.38058066  0.59912882  0.09546740     0.18400
F374        F  0.43620643  0.10735676  0.06746459    -0.19300
C375        C  0.59075478  0.26979838  0.32918998    -0.20800
C376        C  0.58659427  0.26786539  0.36942900    -0.08800
C377        C  0.55728129  0.26708592  0.38474783     0.30100
C378        C  0.53268688  0.26449288  0.35992300    -0.20800
C379        C  0.53704984  0.26265307  0.31958993    -0.08800
C380        C  0.56616098  0.26789085  0.30440092     0.30100
F381        F  0.57108267  0.26769501  0.26546492    -0.19300
H382        H  0.61314224  0.27071742  0.31692391     0.18400
H383        H  0.51065375  0.26008522  0.37241546     0.18400
F384        F  0.55259316  0.26442308  0.42362137    -0.19300
C385        C  0.54988855  0.15507058  0.00617114    -0.20800
C386        C  0.57194258  0.14784745  0.97824825    -0.08800
C387        C  0.56707973  0.12117929  0.95132369     0.30100
C388        C  0.54216201  0.09944892  0.95556867    -0.20800
C389        C  0.52170524  0.10460779  0.98607970    -0.08800
C390        C  0.52464620  0.13387599  0.00976694     0.30100
F391        F  0.50550109  0.13906405  0.03995900    -0.19300
H392        H  0.55290750  0.17620476  0.02641124     0.18400
H393        H  0.54050846  0.07653706  0.93767228     0.18400
F394        F  0.58779516  0.11400676  0.92352242    -0.19300
C395        C  0.43309660  0.26115050  0.04643355    -0.20800
C396        C  0.42816484  0.26622847  0.08620893    -0.08800
C397        C  0.39844293  0.26463774  0.10063063     0.30100
C398        C  0.37430364  0.26405730  0.07507349    -0.20800
C399        C  0.37767402  0.26196256  0.53211568    -0.08800
C400        C  0.40721829  0.25506793  0.51966180     0.30100
F401        F  0.41416067  0.25217428  0.48136771    -0.19300
H402        H  0.45338604  0.25390708  0.53535192     0.18400
H403        H  0.35174509  0.26598228  0.08653363     0.18400
F404        F  0.39265451  0.26707892  0.13928517    -0.19300
C405        C  0.41895592  0.34880071  0.19344088    -0.20800
C406        C  0.44583623  0.35722733  0.17376951    -0.08800
C407        C  0.45075131  0.39150659  0.16193572     0.30100
C408        C  0.42753313  0.41533434  0.16494270    -0.20800
C409        C  0.39923374  0.40501268  0.17905558    -0.08800
C410        C  0.39553101  0.37217461  0.19518124     0.30100
F411        F  0.36879844  0.36212102  0.21065469    -0.19300
H412        H  0.41469324  0.32260454  0.20306890     0.18400
H413        H  0.43086487  0.44100355  0.15320679     0.18400
F414        F  0.47628542  0.40078390  0.14288299    -0.19300
C415        C  0.53842783  0.32235292  0.06389840    -0.20800
C416        C  0.53174544  0.30850336  0.10058971    -0.08800
C417        C  0.55407842  0.29095461  0.12065445     0.30100
C418        C  0.58188956  0.28502938  0.10287560    -0.20800
C419        C  0.58802023  0.29685319  0.06496559    -0.08800
C420        C  0.56640156  0.31694543  0.04630078     0.30100
F421        F  0.57092877  0.32803620  0.00935561    -0.19300
H422        H  0.52130830  0.33562283  0.04787677     0.18400
H423        H  0.59793597  0.26918155  0.11773753     0.18400
F424        F  0.54813934  0.27709920  0.15607029    -0.19300
C425        C  0.05540649  0.99594769  0.28767633    -0.20800
C426        C  0.03464086  0.47928626  0.30319410    -0.08800
C427        C  0.04207870  0.46413401  0.33873284     0.30100
C428        C  0.07089847  0.46844923  0.35387178    -0.20800
C429        C  0.09085133  0.98843335  0.34044248    -0.08800
C430        C  0.08441131  0.99947112  0.30249540     0.30100
F431        F  0.10573094  0.01569119  0.28071911    -0.19300
H432        H  0.05070968  0.00552208  0.25890393     0.18400
H433        H  0.07543009  0.45872655  0.38263979     0.18400
F434        F  0.02094867  0.44690241  0.35981983    -0.19300
C435        C  0.92029553  0.37442686  0.25839252    -0.20800
C436        C  0.89988068  0.38030880  0.22846590    -0.08800
C437        C  0.90693442  0.40504646  0.19994711     0.30100
C438        C  0.93216404  0.42637800  0.20430636    -0.20800
C439        C  0.95096371  0.42261321  0.23643298    -0.08800
C440        C  0.94587685  0.39505725  0.26208508     0.30100
F441        F  0.96312373  0.39139206  0.29404618    -0.19300
H442        H  0.91571233  0.35483083  0.28007467     0.18400
H443        H  0.93533511  0.44802320  0.18484030     0.18400
F444        F  0.88803959  0.41085918  0.17009497    -0.19300
C445        C  0.03144233  0.15788499  0.45315916    -0.20800
C446        C  0.01586491  0.15505178  0.41801413    -0.08800
C447        C  0.02469486  0.13014411  0.39079792     0.30100
C448        C  0.05163668  0.11305963  0.39553461    -0.20800
C449        C  0.06944160  0.11957687  0.42814233    -0.08800
C450        C  0.05805388  0.13992169  0.45848209     0.30100
F451        F  0.07413676  0.14547320  0.49119333    -0.19300
H452        H  0.02517211  0.17731911  0.47421610     0.18400
H453        H  0.05949151  0.09631587  0.37250384     0.18400
F454        F  0.01032446  0.12712635  0.35636001    -0.19300
C455        C  0.91896184  0.24401651  0.36706171    -0.20800
C456        C  0.93755939  0.21927291  0.35035397    -0.08800
C457        C  0.92730438  0.20018924  0.31830270     0.30100
C458        C  0.89950441  0.20755003  0.30164596    -0.20800
C459        C  0.88161090  0.23409200  0.31673601    -0.08800
C460        C  0.89119933  0.25126025  0.35075105     0.30100
F461        F  0.87453404  0.27654328  0.36708403    -0.19300
H462        H  0.92647089  0.25871295  0.39199719     0.18400
H463        H  0.89302826  0.19419869  0.27533832     0.18400
F464        F  0.94500299  0.17604511  0.30163961    -0.19300
C465        C  0.09820739  0.25169435  0.33234466    -0.20800
C466        C  0.09350615  0.26363748  0.29459089    -0.08800
C467        C  0.06452955  0.27470377  0.28455074     0.30100
C468        C  0.04031001  0.26921383  0.30982643    -0.20800
C469        C  0.04443828  0.25299493  0.34564205    -0.08800
C470        C  0.07407861  0.24689669  0.35792691     0.30100
F471        F  0.07968440  0.23341333  0.39343460    -0.19300
H472        H  0.12028468  0.24388079  0.34127882     0.18400
H473        H  0.01801738  0.27486419  0.29975963     0.18400
F474        F  0.05880449  0.28759078  0.24881476    -0.19300
C475        C  0.90467150  0.27214201  0.05691517    -0.20800
C476        C  0.93345875  0.27341674  0.07338163    -0.08800
C477        C  0.93641142  0.26512744  0.11288616     0.30100
C478        C  0.91075518  0.25997369  0.13602689    -0.20800
C479        C  0.88199751  0.26367130  0.12027280    -0.08800
C480        C  0.87917452  0.26810293  0.08017023     0.30100
F481        F  0.85177385  0.27104126  0.06389667    -0.19300
H482        H  0.90166494  0.27775957  0.02641252     0.18400
H483        H  0.91340292  0.25654428  0.16700365     0.18400
F484        F  0.96360646  0.26593035  0.13010849    -0.19300
C485        C  0.08206256  0.27386044  0.06320071    -0.20800
C486        C  0.09669948  0.29941221  0.08519257    -0.08800
C487        C  0.08345385  0.33198863  0.08863587     0.30100
C488        C  0.05498695  0.33775184  0.07275210    -0.20800
C489        C  0.03921131  0.31076955  0.05435463    -0.08800
C490        C  0.05350852  0.27921682  0.04842917     0.30100
F491        F  0.03904507  0.25277240  0.03043629    -0.19300
H492        H  0.09146581  0.24830173  0.06098486     0.18400
H493        H  0.04428605  0.36230028  0.07760733     0.18400
F494        F  0.09651391  0.35687053  0.11068596    -0.19300
C495        C  0.90795090  0.52772978  0.38052498    -0.20800
C496        C  0.87913301  0.52115450  0.36592141    -0.08800
C497        C  0.87547908  0.51670251  0.32594056     0.30100
C498        C  0.90053715  0.51538351  0.30155186    -0.20800
C499        C  0.92974020  0.51673121  0.31687276    -0.08800
C500        C  0.93319895  0.52524359  0.35632222     0.30100
F501        F  0.96074427  0.52727104  0.37250096    -0.19300
H502        H  0.91115736  0.53137741  0.41138176     0.18400
H503        H  0.89704199  0.50971845  0.27113458     0.18400
F504        F  0.84785589  0.51130539  0.31085519    -0.19300
C505        C  0.92108710  0.41595781  0.00937443    -0.20800
C506        C  0.90098976  0.40611385  0.98013786    -0.08800
C507        C  0.90917033  0.38015098  0.95383581     0.30100
C508        C  0.93532475  0.36148319  0.95998543    -0.20800
C509        C  0.95375611  0.36891900  0.99191182    -0.08800
C510        C  0.94752048  0.39785992  0.01490690     0.30100
F511        F  0.96452001  0.40529689  0.04637608    -0.19300
H512        H  0.91552611  0.43659665  0.02929197     0.18400
H513        H  0.93934225  0.33870449  0.94256247     0.18400
F514        F  0.89958003  0.38327764  0.42687378    -0.19300
C515        C  0.09684608  0.00479650  0.07445002    -0.20800
C516        C  0.09553075  0.00631418  0.53160224    -0.08800
C517        C  0.06685712  0.00282078  0.51511734     0.30100
C518        C  0.03933929  0.00185395  0.04284609    -0.20800
C519        C  0.04271867  0.00772997  0.08278210    -0.08800
C520        C  0.07170267  0.00562225  0.09875311     0.30100
F521        F  0.07597403  0.00822602  0.13762840    -0.19300
H522        H  0.11894151  0.00711724  0.08695575     0.18400
H523        H  0.01954265  0.00647731  0.52476931     0.18400
F524        F  0.06355423  0.00147129  0.47600369    -0.19300
C525        C  0.07433237  0.11507986  0.19444598    -0.20800
C526        C  0.07157126  0.14777749  0.17798102    -0.08800
C527        C  0.04419326  0.15729594  0.16156486     0.30100
C528        C  0.02110991  0.13291594  0.15762472    -0.20800
C529        C  0.02513682  0.09891135  0.17015650    -0.08800
C530        C  0.05101855  0.09098738  0.19136562     0.30100
F531        F  0.05513905  0.05865159  0.20513780    -0.19300
H532        H  0.09499277  0.10776400  0.20825462     0.18400
H533        H  0.00164178  0.13961907  0.14084716     0.18400
F534        F  0.04095993  0.18900744  0.14567692    -0.19300
C535        C  0.93830000  0.05768527  0.04945217    -0.20800
C536        C  0.94146795  0.05665670  0.08988239    -0.08800
C537        C  0.91562579  0.05655827  0.11349116     0.30100
C538        C  0.88717279  0.05388170  0.09660225    -0.20800
C539        C  0.88415112  0.05305027  0.05604046    -0.08800
C540        C  0.90995904  0.05645784  0.03264518     0.30100
F541        F  0.90800677  0.05431128  0.99339599    -0.19300
H542        H  0.95791484  0.05796816  0.03076550     0.18400
H543        H  0.86768097  0.05033602  0.11510444     0.18400
F544        F  0.91797772  0.05590633  0.15272281    -0.19300
C545        C  0.97172532  0.05321666  0.60359548     0.80800
N546        N  0.98155779  0.07506953  0.63192410    -0.77500
C547        C  0.00997424  0.07243877  0.64533532     0.83200
N548        N  0.02815528  0.04855263  0.62990036    -0.77500
C549        C  0.01954677  0.02770929  0.60068391     0.83300
N550        N  0.99117693  0.03048962  0.58688457    -0.79200
Zn551      Zn  0.82692572  0.46971226  0.52485408     1.49700
Zn552      Zn  0.82053655  0.03053866  0.96584667     1.49400
Zn553      Zn  0.82288295  0.45674668  0.93253782     1.49100
Zn554      Zn  0.76543554  0.47509552  0.47974068     1.49500
O555        O  0.80874023  0.48310101  0.47660973    -1.83600
O556        O  0.84868604  0.50879659  0.54995702    -0.74200
O557        O  0.84975210  0.53308704  0.93304472    -0.74000
O558        O  0.86347440  0.43427924  0.45087092    -0.73500
O559        O  0.84256984  0.05356998  0.51154211    -0.74200
O560        O  0.86145950  0.43835606  0.51510866    -0.73800
O561        O  0.83731720  0.49118732  0.89201540    -0.74400
O562        O  0.75467832  0.42802729  0.45177742    -0.73800
O563        O  0.78452949  0.05660265  0.94595142    -0.74500
O564        O  0.79341259  0.42039627  0.91299622    -0.73900
O565        O  0.74556372  0.01695294  0.44864618    -0.74400
O566        O  0.75308978  0.46902899  0.53914498    -0.74300
O567        O  0.79656772  0.45149834  0.56316946    -0.74100
C568        C  0.85581427  0.03801240  0.53897847     0.77700
C569        C  0.85296844  0.51780656  0.90069513     0.78200
C570        C  0.87492593  0.42942133  0.48404525     0.77100
C571        C  0.76783929  0.40979621  0.92522122     0.77500
C572        C  0.75766515  0.04720091  0.93841028     0.78700
C573        C  0.76848464  0.45608184  0.56689260     0.77700
C574        C  0.75531825  0.37698547  0.90825650     0.03700
C575        C  0.76429217  0.36692623  0.87060098    -0.12500
C576        C  0.75580469  0.33485624  0.85451936     0.01200
C577        C  0.73857262  0.31185094  0.87742754    -0.11000
C578        C  0.72956607  0.32090372  0.91559072     0.03700
C579        C  0.73729944  0.35391778  0.93027091    -0.10400
H580        H  0.77851782  0.38410748  0.85364627     0.09300
H581        H  0.73272523  0.28666334  0.86595556     0.06800
H582        H  0.73048379  0.36090970  0.95945509     0.06600
C583        C  0.01121101  0.32010269  0.54874145     0.80800
N584        N  0.99109308  0.29660641  0.56365346    -0.77500
C585        C  0.96149004  0.29901282  0.55501977     0.83200
N586        N  0.95258410  0.32475936  0.53184054    -0.77500
C587        C  0.97192679  0.34854529  0.51773262     0.83300
N588        N  0.00138932  0.34691590  0.52687995    -0.79200
Zn589      Zn  0.12252113  0.24222151  0.68138874     1.49700
Zn590      Zn  0.16627393  0.18425003  0.65575308     1.49400
Zn591      Zn  0.18278567  0.26607013  0.64361012     1.49100
Zn592      Zn  0.17656949  0.22966717  0.73025365     1.49500
O593        O  0.16379071  0.23050794  0.67688988    -1.83600
O594        O  0.09617303  0.20132477  0.68193095    -0.74200
O595        O  0.18400996  0.18774963  0.60194161    -0.74000
O596        O  0.15006616  0.29449121  0.61431544    -0.73500
O597        O  0.12503423  0.16060987  0.65681222    -0.74200
O598        O  0.10927563  0.26835496  0.63742323    -0.73800
O599        O  0.20432840  0.24055213  0.59821055    -0.74400
O600        O  0.20593837  0.26898208  0.73678443    -0.73800
O601        O  0.19273034  0.15353576  0.68796615    -0.74500
O602        O  0.21046302  0.29666574  0.68011507    -0.73900
O603        O  0.19524670  0.18302896  0.74324053    -0.74400
O604        O  0.14098005  0.23802726  0.76713768    -0.74300
O605        O  0.11261101  0.26857673  0.72844966    -0.74100
C606        C  0.09980449  0.17087804  0.66974646     0.77700
C607        C  0.19966572  0.21040243  0.58377119     0.78200
C608        C  0.12175421  0.28895358  0.61390820     0.77100
C609        C  0.21688234  0.29363912  0.71638431     0.77500
C610        C  0.20041602  0.15580453  0.72338970     0.78700
C611        C  0.11790726  0.25649378  0.76172669     0.77700
C612        C  0.21444568  0.08838221  0.80024887     0.03700
C613        C  0.23248343  0.06492029  0.77982199    -0.12500
C614        C  0.24075615  0.07065957  0.74040471     0.01200
C615        C  0.23073722  0.10090994  0.72205370    -0.11000
C616        C  0.21345544  0.12524948  0.74268945     0.03700
C617        C  0.20566394  0.11865526  0.78155848    -0.10400
H618        H  0.23896587  0.04144596  0.79428765     0.09300
H619        H  0.23638907  0.10559563  0.69188231     0.06800
H620        H  0.19131809  0.13650567  0.79693334     0.06600
C621        C  0.96807265  0.21624788  0.85963641     0.80800
N622        N  0.99094204  0.23708520  0.84683480    -0.77500
C623        C  0.01863259  0.23497172  0.86275231     0.83200
N624        N  0.02295545  0.21179643  0.89107205    -0.77500
C625        C  0.00123112  0.18975174  0.90286822     0.83300
N626        N  0.97361390  0.19150408  0.88665961    -0.79200
Zn627      Zn  0.76490711  0.30602865  0.72857814     1.49700
Zn628      Zn  0.82068406  0.25332431  0.71404569     1.49400
Zn629      Zn  0.82364149  0.32909258  0.68145872     1.49100
Zn630      Zn  0.82773895  0.31570068  0.77235025     1.49500
O631        O  0.80858522  0.30090327  0.72468880    -1.83600
O632        O  0.74665621  0.26228855  0.69898262    -0.74200
O633        O  0.85326078  0.25437412  0.67309660    -0.74000
O634        O  0.79256995  0.36207411  0.66243420    -0.73500
O635        O  0.78473717  0.22552228  0.69326095    -0.74200
O636        O  0.75290458  0.35225820  0.70037293    -0.73800
O637        O  0.84259637  0.30085247  0.63872082    -0.74400
O638        O  0.85862289  0.35293999  0.76253500    -0.73800
O639        O  0.84356624  0.23153416  0.75864836    -0.74500
O640        O  0.85804639  0.35908043  0.69858324    -0.73900
O641        O  0.85232140  0.27797954  0.79489702    -0.74400
O642        O  0.79725499  0.32972268  0.81220829    -0.74300
O643        O  0.75333150  0.31204685  0.78838965    -0.74100
C644        C  0.75739259  0.23327320  0.68726528     0.77700
C645        C  0.85824965  0.27412023  0.64433937     0.78200
C646        C  0.76652448  0.37031700  0.67431753     0.77100
C647        C  0.86933485  0.36598098  0.73143418     0.77500
C648        C  0.85712315  0.24664314  0.78647997     0.78700
C649        C  0.76917587  0.32464538  0.81625760     0.77700
C650        C  0.75328837  0.40244386  0.65761757     0.03700
C651        C  0.73528169  0.42496477  0.67983676    -0.12500
C652        C  0.72788896  0.45802200  0.66556738     0.01200
C653        C  0.73733160  0.46761652  0.62770422    -0.11000
C654        C  0.75453261  0.44513322  0.60462423     0.03700
C655        C  0.76251128  0.41302789  0.62018704    -0.10400
H656        H  0.72840232  0.41764290  0.70891895     0.09300
H657        H  0.73188678  0.49286878  0.61662994     0.06800
H658        H  0.77679000  0.39633773  0.60311329     0.06600
C659        C  0.99963902  0.48703180  0.79687835     0.80800
N660        N  0.98056585  0.51003508  0.81360842    -0.77500
C661        C  0.95156248  0.51145459  0.80198555     0.83200
N662        N  0.94196473  0.48908489  0.77459073    -0.77500
C663        C  0.96003185  0.46496665  0.75929019     0.83300
N664        N  0.98899737  0.46360013  0.77081331    -0.79200
Zn665      Zn  0.15269685  0.00199083  0.93395488     1.49700
Zn666      Zn  0.20472419  0.06053559  0.92425927     1.49400
Zn667      Zn  0.14304820  0.06831796  0.88252145     1.49100
Zn668      Zn  0.14630978  0.07415020  0.97358801     1.49500
O669        O  0.16201950  0.05087965  0.92805647    -1.83600
O670        O  0.18905571  0.47786282  0.95276583    -0.74200
O671        O  0.21621215  0.06530022  0.86553271    -0.74000
O672        O  0.12076482  0.03067977  0.85588443    -0.73500
O673        O  0.22498993  0.02010194  0.95377044    -0.74200
O674        O  0.12911473  0.98204507  0.88771514    -0.73800
O675        O  0.17338474  0.08692113  0.84401316    -0.74400
O676        O  0.10709813  0.09602630  0.96056295    -0.73800
O677        O  0.21408222  0.10804557  0.95057808    -0.74500
O678        O  0.10906825  0.09981286  0.89630018    -0.73900
O679        O  0.17456561  0.11279520  0.98978758    -0.74400
O680        O  0.13405689  0.04054809  0.01604069    -0.74300
O681        O  0.12210416  0.99727413  0.97668553    -0.74100
C682        C  0.21533641  0.48880586  0.96152259     0.77700
C683        C  0.20095598  0.07979284  0.83882074     0.78200
C684        C  0.11597603  0.99869154  0.86089649     0.77100
C685        C  0.09562438  0.10493958  0.92854893     0.77500
C686        C  0.19954449  0.12451473  0.97673583     0.78700
C687        C  0.11853485  0.01360471  0.00833497     0.77700
C688        C  0.21086190  0.15820577  0.99276367     0.03700
C689        C  0.22935671  0.18149134  0.97133388    -0.12500
C690        C  0.23706041  0.21434063  0.98689401     0.01200
C691        C  0.22599763  0.22320534  0.02423207    -0.11000
C692        C  0.21181229  0.20101948  0.54455455     0.03700
C693        C  0.20071635  0.16814799  0.02988687    -0.10400
H694        H  0.23732515  0.17430874  0.94271931     0.09300
H695        H  0.23391560  0.24943203  0.53451277     0.06800
H696        H  0.19161141  0.15046055  0.54544298     0.06600
C697        C  0.49754567  0.30216143  0.61427937     0.80800
N698        N  0.48743719  0.32580578  0.64056322    -0.77500
C699        C  0.45825523  0.32456779  0.65234619     0.83200
N700        N  0.43975428  0.30066689  0.63689182    -0.77500
C701        C  0.44877509  0.27838972  0.60940320     0.83300
N702        N  0.47792849  0.27936199  0.59774587    -0.79200
Zn703      Zn  0.70252002  0.22318513  0.47846787     1.49700
Zn704      Zn  0.64798015  0.27654453  0.96749000     1.49400
Zn705      Zn  0.64757192  0.20404442  0.93068295     1.49100
Zn706      Zn  0.64071808  0.21054599  0.52107200     1.49500
O707        O  0.65930196  0.22880176  0.47467948    -1.83600
O708        O  0.72053337  0.26674473  0.44955015    -0.74200
O709        O  0.61548639  0.27547943  0.92675158    -0.74000
O710        O  0.67756835  0.16971415  0.91149588    -0.73500
O711        O  0.68378437  0.30421496  0.94637580    -0.74200
O712        O  0.71378944  0.17692274  0.44967237    -0.73800
O713        O  0.63135993  0.23395296  0.88793076    -0.74400
O714        O  0.61027801  0.17404982  0.50817248    -0.73800
O715        O  0.62319099  0.29519867  0.51466195    -0.74500
O716        O  0.60958755  0.17443834  0.44366366    -0.73900
O717        O  0.61556501  0.24612806  0.54645112    -0.74400
O718        O  0.67105684  0.19598184  0.56061861    -0.74300
O719        O  0.71413978  0.21775779  0.53796480    -0.74100
C720        C  0.71100959  0.29627091  0.93916707     0.77700
C721        C  0.61312944  0.25801794  0.89565758     0.78200
C722        C  0.70295852  0.16022443  0.92380532     0.77100
C723        C  0.59877286  0.16472558  0.47607849     0.77500
C724        C  0.61005704  0.27782258  0.54145703     0.78700
C725        C  0.69867623  0.20340946  0.56534236     0.77700
C726        C  0.71434841  0.08530385  0.85324099     0.03700
C727        C  0.73043409  0.06207573  0.87652572    -0.12500
C728        C  0.73923677  0.07123082  0.91474507     0.01200
C729        C  0.73238568  0.10448073  0.92908518    -0.11000
C730        C  0.71554823  0.12769754  0.90682860     0.03700
C731        C  0.70690720  0.11763461  0.86910658    -0.10400
H732        H  0.73570300  0.03677675  0.86523077     0.09300
H733        H  0.73896769  0.11158227  0.95824088     0.06800
H734        H  0.69355715  0.13500257  0.85199737     0.06600
C735        C  0.46719851  0.04591294  0.54126436     0.80800
N736        N  0.47837071  0.06980248  0.51604230    -0.77500
C737        C  0.50753328  0.06875518  0.50504820     0.83200
N738        N  0.52554598  0.04506218  0.52073035    -0.77500
C739        C  0.51554681  0.02223078  0.54746315     0.83300
N740        N  0.48601369  0.02272377  0.55805313    -0.79200
Zn741      Zn  0.34941100  0.49606824  0.67623016     1.49700
Zn742      Zn  0.29784607  0.48347844  0.73006990     1.49400
Zn743      Zn  0.29309609  0.01768420  0.64503435     1.49100
Zn744      Zn  0.30587666  0.43859314  0.65454536     1.49500
O745        O  0.30815718  0.48437052  0.67568574    -1.83600
O746        O  0.35974568  0.52771332  0.71835933    -0.74200
O747        O  0.26970555  0.01971943  0.73957632    -0.74000
O748        O  0.32721849  0.04349833  0.61334388    -0.73500
O749        O  0.33540324  0.49638291  0.76219918    -0.74200
O750        O  0.36195897  0.51735946  0.62856454    -0.73800
O751        O  0.26690081  0.04831533  0.68322088    -0.74400
O752        O  0.28873134  0.44225959  0.60067050    -0.73800
O753        O  0.28103218  0.43442438  0.74432661    -0.74500
O754        O  0.26838146  0.49451445  0.59726573    -0.73900
O755        O  0.27923730  0.40769224  0.68712229    -0.74400
O756        O  0.34683004  0.41522014  0.65700646    -0.74300
O757        O  0.37556940  0.45624981  0.68244416    -0.74100
C758        C  0.35704203  0.51672977  0.75275523     0.77700
C759        C  0.25995657  0.04487050  0.71953246     0.78200
C760        C  0.35498567  0.03561454  0.61214336     0.77100
C761        C  0.27333433  0.46458948  0.58253452     0.77500
C762        C  0.27422724  0.40793936  0.72355793     0.78700
C763        C  0.37169092  0.42548158  0.67130622     0.77700
C764        C  0.26448176  0.33468225  0.79621264     0.03700
C765        C  0.27144095  0.36708059  0.77975202    -0.12500
C766        C  0.26241132  0.37558829  0.74196396     0.01200
C767        C  0.24524596  0.35124690  0.72057370    -0.11000
C768        C  0.23689321  0.31911634  0.73691523     0.03700
C769        C  0.24699574  0.31124631  0.77468629    -0.10400
H770        H  0.28526924  0.38525144  0.79565998     0.09300
H771        H  0.23824235  0.35744079  0.69141765     0.06800
H772        H  0.24142853  0.28647933  0.78743230     0.06600
C773        C  0.46332597  0.21710144  0.79117429     0.80800
N774        N  0.47315955  0.19139481  0.76737745    -0.77500
C775        C  0.50274105  0.18988570  0.75798169     0.83200
N776        N  0.52217239  0.21256570  0.77390611    -0.77500
C777        C  0.51315570  0.23707077  0.79900484     0.83300
N778        N  0.48348660  0.23931714  0.80782008    -0.79200
Zn779      Zn  0.29768834  0.30390743  0.98185938     1.49700
Zn780      Zn  0.29211664  0.26832787  0.89415021     1.49400
Zn781      Zn  0.30821335  0.34944084  0.90792126     1.49100
Zn782      Zn  0.35054159  0.29191322  0.93145378     1.49500
O783        O  0.30971056  0.30347850  0.92805273    -1.83600
O784        O  0.26794799  0.26455234  0.98703791    -0.74200
O785        O  0.27130415  0.29505925  0.84953803    -0.74000
O786        O  0.27980517  0.37874060  0.93870997    -0.73500
O787        O  0.26426695  0.23689691  0.93013774    -0.74200
O788        O  0.27944042  0.35195477  0.99576123    -0.73800
O789        O  0.29295994  0.34726022  0.85290541    -0.74400
O790        O  0.37617315  0.33252240  0.94193457    -0.73800
O791        O  0.32593311  0.24090053  0.86472253    -0.74500
O792        O  0.34888238  0.37336842  0.91505490    -0.73900
O793        O  0.36540478  0.27160072  0.88375571    -0.74400
O794        O  0.35733874  0.25913651  0.97340438    -0.74300
O795        O  0.33415189  0.29186736  0.01631708    -0.74100
C796        C  0.25738622  0.23981136  0.96643950     0.77700
C797        C  0.27670170  0.32508679  0.83505418     0.78200
C798        C  0.27302860  0.37807323  0.97462921     0.77100
C799        C  0.37287430  0.36348371  0.93140786     0.77500
C800        C  0.35370057  0.24924637  0.86169961     0.78700
C801        C  0.35509877  0.27091215  0.00752651     0.77700
C802        C  0.25996574  0.40985509  0.99208958     0.03700
C803        C  0.26867214  0.41999766  0.02946015    -0.12500
C804        C  0.26194188  0.45490135  0.54305365     0.01200
C805        C  0.24520173  0.47563850  0.02127576    -0.11000
C806        C  0.23511232  0.46558670  0.98411584     0.03700
C807        C  0.24269235  0.43268854  0.96979068    -0.10400
H808        H  0.28218324  0.40447727  0.54453476     0.09300
H809        H  0.24001654  0.50315777  0.53098230     0.06800
H810        H  0.23568945  0.42518508  0.94092142     0.06600
C811        C  0.50017348  0.47751429  0.86478563     0.80800
N812        N  0.48209427  0.49889137  0.84436569    -0.77500
C813        C  0.45318915  0.50340425  0.85572906     0.83200
N814        N  0.44280195  0.48586652  0.88680008    -0.77500
C815        C  0.45979135  0.46350093  0.90649454     0.83300
N816        N  0.48876073  0.45898019  0.89521171    -0.79200
Zn817      Zn  0.64955713  0.99824141  0.71845621     1.49700
Zn818      Zn  0.64603772  0.07054395  0.67961381     1.49400
Zn819      Zn  0.64340339  0.06426537  0.77142482     1.49100
Zn820      Zn  0.70458745  0.05439398  0.72818392     1.49500
O821        O  0.66149685  0.04661753  0.72486013    -1.83600
O822        O  0.61750855  0.99507843  0.67740258    -0.74200
O823        O  0.60824471  0.09484491  0.69479685    -0.74000
O824        O  0.62132472  0.02698561  0.79850179    -0.73500
O825        O  0.63077055  0.03764730  0.63773062    -0.74200
O826        O  0.62769082  0.97823899  0.76597109    -0.73800
O827        O  0.60969198  0.09602403  0.75923024    -0.74400
O828        O  0.71629882  0.06028976  0.78784622    -0.73800
O829        O  0.67558309  0.10762097  0.66140274    -0.74500
O830        O  0.67361471  0.08256948  0.80970769    -0.73900
O831        O  0.71501444  0.10143116  0.69973108    -0.74400
O832        O  0.72259705  0.01155887  0.69834739    -0.74300
O833        O  0.68233561  0.47382767  0.69691868    -0.74100
C834        C  0.61427346  0.01147960  0.64583437     0.77700
C835        C  0.59680453  0.10293773  0.72739658     0.78200
C836        C  0.61576469  0.99513414  0.79378742     0.77100
C837        C  0.70106324  0.07527046  0.81481214     0.77500
C838        C  0.70099764  0.11833224  0.67364390     0.78700
C839        C  0.70954745  0.48233440  0.68935755     0.77700
C840        C  0.71202656  0.19389213  0.60366821     0.03700
C841        C  0.72908301  0.21723436  0.62629256    -0.12500
C842        C  0.73846550  0.20837429  0.66423013     0.01200
C843        C  0.73107612  0.17508757  0.67888981    -0.11000
C844        C  0.71327513  0.15165352  0.65710988     0.03700
C845        C  0.70413096  0.16166847  0.61976958    -0.10400
H846        H  0.73465508  0.24245453  0.61469409     0.09300
H847        H  0.73810559  0.16808043  0.70779587     0.06800
H848        H  0.69025349  0.14418043  0.60295147     0.06600
C849        C  0.53848091  0.45611589  0.81787691    -0.20800
C850        C  0.53157947  0.47357655  0.85245192    -0.08800
C851        C  0.55598647  0.99305072  0.87022237     0.30100
C852        C  0.58453895  0.99639296  0.85373567    -0.20800
C853        C  0.59160210  0.98004274  0.81834221    -0.08800
C854        C  0.56715908  0.45893356  0.80122727     0.30100
F855        F  0.57220282  0.44430400  0.76600450    -0.19300
H856        H  0.52112387  0.44207918  0.80253694     0.18400
H857        H  0.60031696  0.01423011  0.86688178     0.18400
F858        F  0.54907951  0.01154870  0.90247845    -0.19300
C859        C  0.39184928  0.42235211  0.94671308    -0.20800
C860        C  0.39779939  0.38803940  0.93726115    -0.08800
C861        C  0.42761682  0.37807453  0.93064008     0.30100
C862        C  0.45022361  0.40315946  0.92706994    -0.20800
C863        C  0.44324983  0.43817708  0.93062600    -0.08800
C864        C  0.41460422  0.44717514  0.94461991     0.30100
F865        F  0.40751751  0.48069094  0.95076635    -0.19300
H866        H  0.36924782  0.43025590  0.95357932     0.18400
H867        H  0.47210576  0.39543327  0.91679436     0.18400
F868        F  0.43431335  0.34469328  0.92308471    -0.19300
C869        C  0.52082498  0.13117332  0.76255802    -0.20800
C870        C  0.51623975  0.16004077  0.73908280    -0.08800
C871        C  0.53536258  0.16591463  0.70709434     0.30100
C872        C  0.56072577  0.14565924  0.70164044    -0.20800
C873        C  0.56753631  0.11994426  0.72857999    -0.08800
C874        C  0.54652841  0.11147596  0.75776231     0.30100
F875        F  0.55172402  0.08546368  0.78303938    -0.19300
H876        H  0.50662812  0.12657875  0.78773292     0.18400
H877        H  0.57632192  0.15202185  0.67841681     0.18400
F878        F  0.53157026  0.19392539  0.68420958    -0.19300
C879        C  0.41665646  0.19578407  0.82453229    -0.20800
C880        C  0.43118686  0.22024396  0.80072559    -0.08800
C881        C  0.41591703  0.25011582  0.79021111     0.30100
C882        C  0.38761938  0.25678254  0.80590481    -0.20800
C883        C  0.37420979  0.23407989  0.83279825    -0.08800
C884        C  0.38841897  0.20277098  0.84083971     0.30100
F885        F  0.37671840  0.18096722  0.86788058    -0.19300
H886        H  0.42821926  0.17266169  0.83307086     0.18400
H887        H  0.37748059  0.28145286  0.80009272     0.18400
F888        F  0.42928814  0.27399111  0.76688682    -0.19300
C889        C  0.40104549  0.52277372  0.84517522    -0.20800
C890        C  0.43052109  0.51959597  0.83057700    -0.08800
C891        C  0.43550659  0.52403522  0.79056483     0.30100
C892        C  0.41112056  0.52664734  0.76558673    -0.20800
C893        C  0.38155558  0.52433908  0.78000832    -0.08800
C894        C  0.37672605  0.52437045  0.82014592     0.30100
F895        F  0.34853693  0.52373975  0.83508379    -0.19300
H896        H  0.39645378  0.52064657  0.87600623     0.18400
H897        H  0.41541450  0.52716888  0.73459160     0.18400
F898        F  0.46345611  0.52222046  0.77505292    -0.19300
C899        C  0.59302790  0.00239119  0.57974025    -0.20800
C900        C  0.58906359  0.00225270  0.62003318    -0.08800
C901        C  0.55983449  0.99864379  0.63539171     0.30100
C902        C  0.53493296  0.00037097  0.61088340    -0.20800
C903        C  0.53893194  0.00491947  0.57073773    -0.08800
C904        C  0.56825755  0.00261452  0.55521670     0.30100
F905        F  0.57317018  0.00441350  0.51631878    -0.19300
H906        H  0.61531885  0.00426987  0.56728030     0.18400
H907        H  0.51279482  0.00176454  0.62375600     0.18400
F908        F  0.55523763  0.99766136  0.67436906    -0.19300
C909        C  0.41585144  0.02040094  0.54303596    -0.20800
C910        C  0.43536548  0.04745278  0.55280243    -0.08800
C911        C  0.42428160  0.07568752  0.57390628     0.30100
C912        C  0.39486334  0.07495921  0.58856002    -0.20800
C913        C  0.37596406  0.04650864  0.58137737    -0.08800
C914        C  0.38622002  0.02024774  0.55650525     0.30100
F915        F  0.36876420  0.99202114  0.54972125    -0.19300
H916        H  0.42392958  0.99874474  0.52645812     0.18400
H917        H  0.38507269  0.59612053  0.62576424     0.18400
F918        F  0.44268733  0.10244239  0.58332266    -0.19300
C919        C  0.59066343  0.26221855  0.82980875    -0.20800
C920        C  0.58711350  0.26310274  0.87018771    -0.08800
C921        C  0.55797004  0.26312489  0.88615878     0.30100
C922        C  0.53300322  0.25891664  0.86213864    -0.20800
C923        C  0.53676153  0.25471831  0.82192951    -0.08800
C924        C  0.56574149  0.25868528  0.80579212     0.30100
F925        F  0.57022768  0.25609800  0.76687493    -0.19300
H926        H  0.61286617  0.26241612  0.81695823     0.18400
H927        H  0.51111283  0.25551174  0.87540197     0.18400
F928        F  0.55378312  0.26309154  0.92523316    -0.19300
C929        C  0.54890819  0.15100563  0.50384947    -0.20800
C930        C  0.57149236  0.14333669  0.47682382    -0.08800
C931        C  0.56801643  0.11480671  0.45207397     0.30100
C932        C  0.54383321  0.09212812  0.45758620    -0.20800
C933        C  0.52261393  0.09827173  0.48699969    -0.08800
C934        C  0.52437205  0.12889817  0.50861136     0.30100
F935        F  0.50467335  0.13501660  0.53796333    -0.19300
H936        H  0.55098959  0.17337068  0.52256642     0.18400
H937        H  0.54315000  0.06817984  0.44138547     0.18400
F938        F  0.58938331  0.10704594  0.42534429    -0.19300
C939        C  0.43063675  0.25531964  0.54625678    -0.20800
C940        C  0.42497901  0.26220703  0.58553848    -0.08800
C941        C  0.39488235  0.26326074  0.59857733     0.30100
C942        C  0.37155646  0.26398236  0.57190324    -0.20800
C943        C  0.37938335  0.26334132  0.03498137    -0.08800
C944        C  0.40898058  0.25965386  0.02095117     0.30100
F945        F  0.41498583  0.25871785  0.98227061    -0.19300
H946        H  0.45557035  0.26205338  0.03444400     0.18400
H947        H  0.34894010  0.26822522  0.58223314     0.18400
F948        F  0.38811577  0.26742815  0.63678403    -0.19300
C949        C  0.41592928  0.34562108  0.69123519    -0.20800
C950        C  0.44313191  0.35339179  0.67199290    -0.08800
C951        C  0.44846282  0.38734747  0.65931965     0.30100
C952        C  0.42541772  0.41144777  0.66117929    -0.20800
C953        C  0.39684536  0.40170749  0.67489220    -0.08800
C954        C  0.39264297  0.36919804  0.69168410     0.30100
F955        F  0.36565697  0.35971244  0.70685222    -0.19300
H956        H  0.41137370  0.31968650  0.70155273     0.18400
H957        H  0.42918235  0.43690514  0.64906166     0.18400
F958        F  0.47433243  0.39600271  0.64067070    -0.19300
C959        C  0.53602106  0.31889702  0.56490387    -0.20800
C960        C  0.52884951  0.30306463  0.60041310    -0.08800
C961        C  0.55068800  0.28387290  0.61939380     0.30100
C962        C  0.57860897  0.27863962  0.60171206    -0.20800
C963        C  0.58528070  0.29259850  0.56487699    -0.08800
C964        C  0.56406854  0.31397491  0.54730727     0.30100
F965        F  0.56909022  0.32699193  0.51127423    -0.19300
H966        H  0.51923599  0.33342948  0.54970762     0.18400
H967        H  0.59433052  0.26174582  0.61567430     0.18400
F968        F  0.54421021  0.26804763  0.65359655    -0.19300
C969        C  0.05757340  0.98930782  0.78338119    -0.20800
C970        C  0.03044422  0.48412157  0.81132110    -0.08800
C971        C  0.03542996  0.47546361  0.85023208     0.30100
C972        C  0.06446798  0.47584424  0.86503256    -0.20800
C973        C  0.09123618  0.98293909  0.83831721    -0.08800
C974        C  0.08588903  0.99386113  0.80000565     0.30100
F975        F  0.10742454  0.01122419  0.77974601    -0.19300
H976        H  0.05352099  0.99938059  0.75463261     0.18400
H977        H  0.06746823  0.47147512  0.89579688     0.18400
F978        F  0.01204168  0.46821514  0.87436904    -0.19300
C979        C  0.91698444  0.38332860  0.76304354    -0.20800
C980        C  0.89605371  0.38865212  0.73358642    -0.08800
C981        C  0.90091976  0.41573606  0.70705508     0.30100
C982        C  0.92481302  0.43888433  0.71239263    -0.20800
C983        C  0.94463731  0.43465780  0.74335672    -0.08800
C984        C  0.94122544  0.40588147  0.76771681     0.30100
F985        F  0.95912204  0.40202469  0.79903411    -0.19300
H986        H  0.91398277  0.36230864  0.78341567     0.18400
H987        H  0.92650627  0.46159191  0.69420868     0.18400
F988        F  0.88129106  0.42152806  0.67800885    -0.19300
C989        C  0.02930428  0.16084598  0.95395633    -0.20800
C990        C  0.01260754  0.15795069  0.91968156    -0.08800
C991        C  0.02015195  0.13223703  0.89267732     0.30100
C992        C  0.04676378  0.11420587  0.89661433    -0.20800
C993        C  0.06558238  0.12041791  0.92832880    -0.08800
C994        C  0.05555398  0.14194321  0.95852995     0.30100
F995        F  0.07259564  0.14755269  0.99039667    -0.19300
H996        H  0.02419025  0.18091771  0.97478764     0.18400
H997        H  0.05350927  0.09677923  0.87364317     0.18400
F998        F  0.00489582  0.12919958  0.85889164    -0.19300
C999        C  0.91205242  0.21989690  0.86342474    -0.20800
C1000       C  0.93840705  0.21816212  0.84095221    -0.08800
C1001       C  0.93639269  0.22050601  0.80035434     0.30100
C1002       C  0.90876876  0.22586489  0.78278249    -0.20800
C1003       C  0.88276451  0.23012242  0.80527820    -0.08800
C1004       C  0.88447072  0.22665398  0.84581136     0.30100
F1005       F  0.85979823  0.23127971  0.86833790    -0.19300
H1006       H  0.91313523  0.21815980  0.89475011     0.18400
H1007       H  0.90808170  0.22936788  0.75160059     0.18400
F1008       F  0.96131340  0.21868607  0.77768713    -0.19300
C1009       C  0.09885336  0.24431193  0.82849082    -0.20800
C1010       C  0.09502984  0.26068212  0.79275984    -0.08800
C1011       C  0.06702645  0.27554912  0.78472427     0.30100
C1012       C  0.04258002  0.26998018  0.80964140    -0.20800
C1013       C  0.04558329  0.24995679  0.84317617    -0.08800
C1014       C  0.07461324  0.23914453  0.85363769     0.30100
F1015       F  0.07945694  0.22076592  0.88644160    -0.19300
H1016       H  0.12016883  0.23317947  0.83585723     0.18400
H1017       H  0.02085223  0.27928412  0.80115632     0.18400
F1018       F  0.06241485  0.29301807  0.75125621    -0.19300
C1019       C  0.90922854  0.27700766  0.55729105    -0.20800
C1020       C  0.93743150  0.27921096  0.57527506    -0.08800
C1021       C  0.93929831  0.27147867  0.61504136     0.30100
C1022       C  0.91304414  0.26574681  0.63686019    -0.20800
C1023       C  0.88476293  0.26840314  0.61949909    -0.08800
C1024       C  0.88309506  0.27243186  0.57924528     0.30100
F1025       F  0.85614082  0.27457294  0.56161303    -0.19300
H1026       H  0.90712163  0.28246991  0.52661341     0.18400
H1027       H  0.91472520  0.26284214  0.66803713     0.18400
F1028       F  0.96585253  0.27372975  0.63374612    -0.19300
C1029       C  0.08784126  0.28175080  0.55913862    -0.20800
C1030       C  0.10140425  0.30449873  0.58568613    -0.08800
C1031       C  0.08671593  0.33525669  0.59523127     0.30100
C1032       C  0.05799705  0.34164380  0.58075573    -0.20800
C1033       C  0.04336221  0.31698338  0.55752804    -0.08800
C1034       C  0.05895958  0.28764481  0.54555213     0.30100
F1035       F  0.04551909  0.26362037  0.52266880    -0.19300
H1036       H  0.09830021  0.25739557  0.55232052     0.18400
H1037       H  0.04624960  0.36446038  0.59023292     0.18400
F1038       F  0.09857954  0.35703664  0.62201651    -0.19300
C1039       C  0.90630161  0.53363380  0.89010579    -0.20800
C1040       C  0.87751363  0.52886937  0.87468452    -0.08800
C1041       C  0.87384790  0.52912616  0.83441834     0.30100
C1042       C  0.89894005  0.52986342  0.81004660    -0.20800
C1043       C  0.92802884  0.52846557  0.82554873    -0.08800
C1044       C  0.93154397  0.53320648  0.86577964     0.30100
F1045       F  0.95904855  0.53293456  0.88216636    -0.19300
H1046       H  0.90947521  0.53395022  0.92122757     0.18400
H1047       H  0.89551358  0.52729399  0.77909982     0.18400
F1048       F  0.84618706  0.52599737  0.81874450    -0.19300
C1049       C  0.92299983  0.42253943  0.51895503    -0.20800
C1050       C  0.90498467  0.41426481  0.48692933    -0.08800
C1051       C  0.91585771  0.39115317  0.45883128     0.30100
C1052       C  0.94226317  0.37323445  0.46563073    -0.20800
C1053       C  0.95831830  0.37861482  0.50000817    -0.08800
C1054       C  0.94967143  0.40515472  0.52524611     0.30100
F1055       F  0.96449388  0.41052365  0.55901078    -0.19300
H1056       H  0.91562626  0.44118892  0.54031558     0.18400
H1057       H  0.94825202  0.35232032  0.44630356     0.18400
F1058       F  0.89043004  0.37039162  0.92492106    -0.19300
C1059       C  0.09815382  0.00713674  0.57194779    -0.20800
C1060       C  0.09343930  0.00380891  0.03418403    -0.08800
C1061       C  0.06454776  0.99964993  0.01864912     0.30100
C1062       C  0.04119454  0.00518255  0.53854269    -0.20800
C1063       C  0.04385407  0.01042011  0.57866776    -0.08800
C1064       C  0.07258201  0.00811088  0.59544577     0.30100
F1065       F  0.07622970  0.01051462  0.63445213    -0.19300
H1066       H  0.12001701  0.00902904  0.58518829     0.18400
H1067       H  0.01743610  0.00276342  0.02969433     0.18400
F1068       F  0.06053512  0.99809728  0.97966577    -0.19300
C1069       C  0.07451782  0.11637714  0.69012563    -0.20800
C1070       C  0.07368506  0.14767867  0.67014336    -0.08800
C1071       C  0.04741200  0.15713509  0.65097090     0.30100
C1072       C  0.02334880  0.13393368  0.64857657    -0.20800
C1073       C  0.02535638  0.10104888  0.66511903    -0.08800
C1074       C  0.05027451  0.09339781  0.68825881     0.30100
F1075       F  0.05255589  0.06201298  0.70525976    -0.19300
H1076       H  0.09429812  0.10928792  0.70607293     0.18400
H1077       H  0.00477632  0.14017098  0.62994891     0.18400
F1078       F  0.04615568  0.18744958  0.63147602    -0.19300
C1079       C  0.93662063  0.06061057  0.54850852    -0.20800
C1080       C  0.94100364  0.05634657  0.58843503    -0.08800
C1081       C  0.91587708  0.05310765  0.61308987     0.30100
C1082       C  0.88702080  0.05069409  0.59737486    -0.20800
C1083       C  0.88276100  0.05319767  0.55710458    -0.08800
C1084       C  0.90778027  0.05969343  0.53300855     0.30100
F1085       F  0.90468686  0.06105411  0.49387454    -0.19300
H1086       H  0.95567995  0.06343923  0.52910270     0.18400
H1087       H  0.86821866  0.04477426  0.61633929     0.18400
F1088       F  0.91941403  0.04933726  0.65192976    -0.19300
C1089       C  0.96839297  0.55245697  0.11288817     0.80800
N1090       N  0.97924854  0.57597291  0.13882193    -0.77500
C1091       C  0.00857474  0.57512867  0.14897880     0.83200
N1092       N  0.02667862  0.55182385  0.13216940    -0.77500
C1093       C  0.01677351  0.52937689  0.10520041     0.83300
N1094       N  0.98739329  0.52992319  0.09510130    -0.79200
Zn1095     Zn  0.82793117  0.96828439  0.02274651     1.49700
Zn1096     Zn  0.82041903  0.53099074  0.46618334     1.49400
Zn1097     Zn  0.82287564  0.95903696  0.42980681     1.49100
Zn1098     Zn  0.76540665  0.97495274  0.97948264     1.49500
O1099       O  0.80863803  0.98273268  0.97569801    -1.83600
O1100       O  0.85096968  0.00676551  0.04724031    -0.74200
O1101       O  0.84803084  0.03586383  0.42461071    -0.74000
O1102       O  0.86161651  0.93328011  0.94631674    -0.73500
O1103       O  0.84065514  0.54718599  0.02184350    -0.74200
O1104       O  0.86150130  0.93598692  0.01074512    -0.73800
O1105       O  0.83630781  0.99151888  0.38675973    -0.74400
O1106       O  0.75434863  0.92803862  0.95127344    -0.73800
O1107       O  0.78404837  0.55698732  0.44686089    -0.74500
O1108       O  0.79393874  0.92120279  0.41233580    -0.73900
O1109       O  0.74634082  0.51521506  0.95050018    -0.74400
O1110       O  0.75421325  0.96817900  0.03935815    -0.74300
O1111       O  0.79809403  0.95024581  0.06190491    -0.74100
C1112       C  0.85373267  0.52932483  0.04765030     0.77700
C1113       C  0.85152583  0.01888796  0.39345241     0.78200
C1114       C  0.87363416  0.92700167  0.97878735     0.77100
C1115       C  0.76837470  0.91066974  0.42462995     0.77500
C1116       C  0.75729373  0.54723089  0.43915619     0.78700
C1117       C  0.77008436  0.95489622  0.06650472     0.77700
C1118       C  0.75597465  0.87743770  0.40812882     0.03700
C1119       C  0.76548341  0.86690622  0.37082328    -0.12500
C1120       C  0.75708742  0.83479912  0.35473339     0.01200
C1121       C  0.73926522  0.81210546  0.37753295    -0.11000
C1122       C  0.72956281  0.82151642  0.41546263     0.03700
C1123       C  0.73737442  0.85468531  0.42993592    -0.10400
H1124       H  0.77995655  0.88391582  0.35400186     0.09300
H1125       H  0.73340836  0.78690367  0.36612611     0.06800
H1126       H  0.73014946  0.86204988  0.45883179     0.06600
C1127       C  0.00863278  0.81676992  0.04302922     0.80800
N1128       N  0.98906205  0.79282740  0.05832077    -0.77500
C1129       C  0.95955253  0.79338780  0.04855646     0.83200
N1130       N  0.95028800  0.81775822  0.02376219    -0.77500
C1131       C  0.96900303  0.84203845  0.00928438     0.83300
N1132       N  0.99828016  0.84226415  0.01965077    -0.79200
Zn1133     Zn  0.11966529  0.74770761  0.18134743     1.49700
Zn1134     Zn  0.16189902  0.68814246  0.15569817     1.49400
Zn1135     Zn  0.18000715  0.76886476  0.14249821     1.49100
Zn1136     Zn  0.17328651  0.73299462  0.22953360     1.49500
O1137       O  0.16047677  0.73442894  0.17625608    -1.83600
O1138       O  0.09229956  0.70747478  0.18458923    -0.74200
O1139       O  0.17794384  0.69038119  0.10109996    -0.74000
O1140       O  0.14751236  0.79730232  0.11225105    -0.73500
O1141       O  0.12045224  0.66583104  0.15986979    -0.74200
O1142       O  0.10634777  0.77291613  0.13667013    -0.73800
O1143       O  0.20091996  0.74176901  0.09776216    -0.74400
O1144       O  0.20358610  0.77080492  0.23576534    -0.73800
O1145       O  0.18952383  0.65732823  0.18622026    -0.74500
O1146       O  0.20856369  0.79858663  0.17920539    -0.73900
O1147       O  0.19195385  0.68610254  0.24191233    -0.74400
O1148       O  0.13824330  0.74391027  0.26676150    -0.74300
O1149       O  0.11208569  0.77637530  0.22735014    -0.74100
C1150       C  0.09555936  0.67663356  0.17336716     0.77700
C1151       C  0.19483859  0.71197153  0.08319153     0.78200
C1152       C  0.11907481  0.79244174  0.11222492     0.77100
C1153       C  0.21508874  0.79508943  0.21544594     0.77500
C1154       C  0.19762781  0.65931879  0.22148502     0.78700
C1155       C  0.11657035  0.76445391  0.26091258     0.77700
C1156       C  0.21537001  0.59282492  0.29786825     0.03700
C1157       C  0.23281370  0.56931705  0.27669754    -0.12500
C1158       C  0.23971267  0.57464934  0.23673888     0.01200
C1159       C  0.22875060  0.60464352  0.21859344    -0.11000
C1160       C  0.21189972  0.62902572  0.23999840     0.03700
C1161       C  0.20577986  0.62281985  0.27938952    -0.10400
H1162       H  0.23980410  0.54601790  0.29109832     0.09300
H1163       H  0.23323189  0.60900314  0.18805050     0.06800
H1164       H  0.19182098  0.64063034  0.29542445     0.06600
C1165       C  0.97016674  0.72482050  0.36282591     0.80800
N1166       N  0.99164810  0.74737611  0.34977180    -0.77500
C1167       C  0.01992354  0.74629926  0.36420454     0.83200
N1168       N  0.02618526  0.72221344  0.39097137    -0.77500
C1169       C  0.00560549  0.69882179  0.40302367     0.83300
N1170       N  0.97751152  0.69963866  0.38835948    -0.79200
Zn1171     Zn  0.76693672  0.80446545  0.22891028     1.49700
Zn1172     Zn  0.82294699  0.75132631  0.21505882     1.49400
Zn1173     Zn  0.82536924  0.82571561  0.17982892     1.49100
Zn1174     Zn  0.82890851  0.81636857  0.27125360     1.49500
O1175       O  0.81044594  0.79910777  0.22431459    -1.83600
O1176       O  0.74882661  0.76059232  0.19986925    -0.74200
O1177       O  0.85482725  0.75108347  0.17273365    -0.74000
O1178       O  0.79476048  0.85966934  0.16151488    -0.73500
O1179       O  0.78647140  0.72299987  0.19572524    -0.74200
O1180       O  0.75539012  0.85070815  0.20029699    -0.73800
O1181       O  0.84236903  0.79595894  0.13684560    -0.74400
O1182       O  0.86082836  0.85210782  0.25961112    -0.73800
O1183       O  0.84665822  0.73186613  0.26074882    -0.74500
O1184       O  0.86111449  0.85436727  0.19522793    -0.73900
O1185       O  0.85282491  0.77968814  0.29552774    -0.74400
O1186       O  0.79841604  0.83143263  0.31128901    -0.74300
O1187       O  0.75517802  0.81049986  0.28893752    -0.74100
C1188       C  0.75926109  0.73115678  0.18910668     0.77700
C1189       C  0.85854101  0.76966300  0.14267746     0.78200
C1190       C  0.76898888  0.86846670  0.17392378     0.77100
C1191       C  0.87233753  0.86258759  0.22775217     0.77500
C1192       C  0.85884481  0.74837455  0.28873555     0.78700
C1193       C  0.77063031  0.82466613  0.31624301     0.77700
C1194       C  0.75601441  0.90088938  0.15751608     0.03700
C1195       C  0.73810471  0.92331145  0.17999265    -0.12500
C1196       C  0.73059362  0.95638840  0.16593222     0.01200
C1197       C  0.73972798  0.96609916  0.12800288    -0.11000
C1198       C  0.75680065  0.94377152  0.10461587     0.03700
C1199       C  0.76506341  0.91166246  0.12003380    -0.10400
H1200       H  0.73126392  0.91582572  0.20903738     0.09300
H1201       H  0.73399367  0.99129044  0.11700839     0.06800
H1202       H  0.77924131  0.89505119  0.10272628     0.06600
C1203       C  0.00106368  0.98292564  0.29680233     0.80800
N1204       N  0.98121329  0.00588758  0.31209507    -0.77500
C1205       C  0.95245107  0.00630428  0.29926123     0.83200
N1206       N  0.94397316  0.98322200  0.27204964    -0.77500
C1207       C  0.96281785  0.95935701  0.25793646     0.83300
N1208       N  0.99151268  0.95881872  0.27071164    -0.79200
Zn1209     Zn  0.15377456  0.50534256  0.42940658     1.49700
Zn1210     Zn  0.20599557  0.56373558  0.42203076     1.49400
Zn1211     Zn  0.14457560  0.57285965  0.38039725     1.49100
Zn1212     Zn  0.14745470  0.57568151  0.47138389     1.49500
O1213       O  0.16343275  0.55409370  0.42507074    -1.83600
O1214       O  0.19295745  0.97891594  0.45132935    -0.74200
O1215       O  0.21780012  0.56958700  0.36325483    -0.74000
O1216       O  0.12148965  0.53622391  0.35343946    -0.73500
O1217       O  0.22577495  0.52268922  0.45121834    -0.74200
O1218       O  0.13139422  0.48638569  0.38194600    -0.73800
O1219       O  0.17484518  0.59114396  0.34210645    -0.74400
O1220       O  0.10884485  0.59870266  0.45894389    -0.73800
O1221       O  0.21433959  0.61068745  0.45003077    -0.74500
O1222       O  0.11176677  0.60534800  0.39500394    -0.73900
O1223       O  0.17505785  0.61336081  0.48994298    -0.74400
O1224       O  0.13499087  0.54115135  0.51223695    -0.74300
O1225       O  0.12173521  0.50046582  0.47033165    -0.74100
C1226       C  0.21882162  0.99030784  0.46146661     0.77700
C1227       C  0.20238857  0.58413844  0.33669831     0.78200
C1228       C  0.11738549  0.50394651  0.35668536     0.77100
C1229       C  0.09817317  0.60960211  0.42728054     0.77500
C1230       C  0.19965279  0.62598373  0.47699767     0.78700
C1231       C  0.11828584  0.51574787  0.50264582     0.77700
C1232       C  0.21000327  0.65972002  0.49351271     0.03700
C1233       C  0.22776691  0.68339730  0.47195287    -0.12500
C1234       C  0.23436116  0.71652701  0.48706475     0.01200
C1235       C  0.22296068  0.72547049  0.52424758    -0.11000
C1236       C  0.20715571  0.70165773  0.04439568     0.03700
C1237       C  0.19937195  0.66952674  0.53054918    -0.10400
H1238       H  0.23606215  0.67625196  0.44347439     0.09300
H1239       H  0.23031017  0.74929744  0.03438711     0.06800
H1240       H  0.18601043  0.65161502  0.04550409     0.06600
C1241       C  0.49582770  0.79810372  0.11393203     0.80800
N1242       N  0.48726905  0.82250883  0.14027274    -0.77500
C1243       C  0.45863360  0.82235374  0.15419487     0.83200
N1244       N  0.43905641  0.79846176  0.14104198    -0.77500
C1245       C  0.44644983  0.77523273  0.11367554     0.83300
N1246       N  0.47505511  0.77537331  0.09963592    -0.79200
Zn1247     Zn  0.70507527  0.72327216  0.98042325     1.49700
Zn1248     Zn  0.64710465  0.77678025  0.46724792     1.49400
Zn1249     Zn  0.64637905  0.70426284  0.42889739     1.49100
Zn1250     Zn  0.64235751  0.71106993  0.02217944     1.49500
O1251       O  0.66188525  0.72917742  0.97627013    -1.83600
O1252       O  0.72297609  0.76657628  0.95014849    -0.74200
O1253       O  0.61603274  0.77709568  0.42493315    -0.74000
O1254       O  0.67647608  0.66955858  0.41058720    -0.73500
O1255       O  0.68364308  0.80539451  0.44761267    -0.74200
O1256       O  0.71673063  0.67669348  0.95238407    -0.73800
O1257       O  0.63050263  0.73478574  0.38620197    -0.74400
O1258       O  0.61133219  0.67557612  0.00760654    -0.73800
O1259       O  0.62333651  0.79499960  0.01427707    -0.74500
O1260       O  0.61190588  0.67735231  0.94303721    -0.73900
O1261       O  0.61654525  0.74644490  0.04743354    -0.74400
O1262       O  0.67236299  0.69567167  0.06200041    -0.74300
O1263       O  0.71581630  0.71752823  0.04038599    -0.74100
C1264       C  0.71061041  0.79689651  0.43914805     0.77700
C1265       C  0.61323935  0.75986500  0.39376149     0.78200
C1266       C  0.70166334  0.65985185  0.42346129     0.77100
C1267       C  0.60009749  0.66764524  0.97486685     0.77500
C1268       C  0.61007969  0.77768247  0.04106628     0.78700
C1269       C  0.69999801  0.70285898  0.06729475     0.77700
C1270       C  0.71216605  0.58338591  0.35484706     0.03700
C1271       C  0.72891212  0.56084993  0.37806243    -0.12500
C1272       C  0.73851863  0.57092597  0.41559906     0.01200
C1273       C  0.73168780  0.60440500  0.42936754    -0.11000
C1274       C  0.71411342  0.62695605  0.40713207     0.03700
C1275       C  0.70475424  0.61593823  0.37004751    -0.10400
H1276       H  0.73409370  0.53536265  0.36723990     0.09300
H1277       H  0.73883663  0.61216809  0.45807958     0.06800
H1278       H  0.69089439  0.63272023  0.35288309     0.06600
C1279       C  0.46475582  0.55333986  0.03559045     0.80800
N1280       N  0.47626245  0.57739132  0.01066415    -0.77500
C1281       C  0.50582049  0.57682921  0.00124762     0.83200
N1282       N  0.52370315  0.55370549  0.01821795    -0.77500
C1283       C  0.51324450  0.53083327  0.04452384     0.83300
N1284       N  0.48344456  0.53064782  0.05341038    -0.79200
Zn1285     Zn  0.35075980  0.99478681  0.18320091     1.49700
Zn1286     Zn  0.29788061  0.98173074  0.23053311     1.49400
Zn1287     Zn  0.29128388  0.51969954  0.14134510     1.49100
Zn1288     Zn  0.30941519  0.93739998  0.15509046     1.49500
O1289       O  0.31013194  0.98259156  0.17704933    -1.83600
O1290       O  0.35695600  0.02827930  0.22475200    -0.74200
O1291       O  0.26776078  0.52306622  0.23534760    -0.74000
O1292       O  0.32525735  0.54475888  0.10834725    -0.73500
O1293       O  0.33370686  0.99356174  0.26589883    -0.74200
O1294       O  0.36621818  0.01388058  0.13619870    -0.73800
O1295       O  0.26529803  0.55163451  0.17903893    -0.74400
O1296       O  0.29180720  0.94107977  0.10129701    -0.73800
O1297       O  0.28009760  0.93368592  0.24360669    -0.74500
O1298       O  0.27003911  0.99257597  0.09907375    -0.73900
O1299       O  0.28329581  0.90550754  0.18733183    -0.74400
O1300       O  0.35126275  0.91622231  0.15750649    -0.74300
O1301       O  0.37652998  0.95467042  0.19269653    -0.74100
C1302       C  0.35446598  0.01558646  0.25836618     0.77700
C1303       C  0.25835533  0.54843716  0.21539818     0.78200
C1304       C  0.35298538  0.53668594  0.10679905     0.77100
C1305       C  0.27537016  0.96294535  0.08395422     0.77500
C1306       C  0.27549234  0.90663396  0.22295528     0.78700
C1307       C  0.37451229  0.92539260  0.17651822     0.77700
C1308       C  0.26300372  0.83475338  0.29613605     0.03700
C1309       C  0.27109110  0.86657595  0.27926250    -0.12500
C1310       C  0.26286857  0.87483792  0.24111826     0.01200
C1311       C  0.24541144  0.85106862  0.21957603    -0.11000
C1312       C  0.23576320  0.81962750  0.23621352     0.03700
C1313       C  0.24507300  0.81175511  0.27447734    -0.10400
H1314       H  0.28518886  0.88447944  0.29516397     0.09300
H1315       H  0.23905673  0.85729174  0.19016490     0.06800
H1316       H  0.23854927  0.78739284  0.28748068     0.06600
C1317       C  0.46236460  0.72446567  0.29168315     0.80800
N1318       N  0.47169998  0.69679124  0.27057519    -0.77500
C1319       C  0.50119088  0.69369588  0.26166177     0.83200
N1320       N  0.52109803  0.71683189  0.27555296    -0.77500
C1321       C  0.51266915  0.74334935  0.29823092     0.83300
N1322       N  0.48302268  0.74717806  0.30656422    -0.79200
Zn1323     Zn  0.29514913  0.80440466  0.48228144     1.49700
Zn1324     Zn  0.28992348  0.76924188  0.39441727     1.49400
Zn1325     Zn  0.30829878  0.84883511  0.40770855     1.49100
Zn1326     Zn  0.34823141  0.78988338  0.43543491     1.49500
O1327       O  0.30812305  0.80335011  0.42901694    -1.83600
O1328       O  0.26422820  0.76709433  0.48671036    -0.74200
O1329       O  0.26835804  0.79582308  0.35047741    -0.74000
O1330       O  0.28181173  0.87988458  0.43928850    -0.73500
O1331       O  0.26237917  0.73789658  0.43058957    -0.74200
O1332       O  0.27891641  0.85263568  0.49604301    -0.73800
O1333       O  0.29208699  0.84678217  0.35270777    -0.74400
O1334       O  0.37477385  0.82970175  0.44536572    -0.73800
O1335       O  0.32359823  0.74353070  0.36302759    -0.74500
O1336       O  0.35014591  0.87012476  0.41341980    -0.73900
O1337       O  0.36328053  0.77001376  0.38814103    -0.74400
O1338       O  0.35355197  0.75687339  0.47800186    -0.74300
O1339       O  0.32900321  0.78986543  0.51916423    -0.74100
C1340       C  0.25448379  0.74181263  0.46644454     0.77700
C1341       C  0.27484184  0.82526218  0.33531869     0.78200
C1342       C  0.27430456  0.87923028  0.47500852     0.77100
C1343       C  0.37319222  0.85989300  0.43169149     0.77500
C1344       C  0.35161832  0.75097676  0.36251172     0.78700
C1345       C  0.34925776  0.76758248  0.51227640     0.77700
C1346       C  0.26218584  0.91125190  0.49252428     0.03700
C1347       C  0.27064623  0.92075133  0.53019462    -0.12500
C1348       C  0.26316937  0.95310381  0.04497027     0.01200
C1349       C  0.24793736  0.97683645  0.52228479    -0.11000
C1350       C  0.23822383  0.96722748  0.48467849     0.03700
C1351       C  0.24558128  0.93446348  0.47018240    -0.10400
H1352       H  0.28367849  0.90287495  0.04613719     0.09300
H1353       H  0.24059308  0.00107089  0.03336798     0.06800
H1354       H  0.23876219  0.92724636  0.44113717     0.06600
C1355       C  0.49969931  0.97503872  0.36329215     0.80800
N1356       N  0.48061795  0.99689810  0.34521509    -0.77500
C1357       C  0.45204343  0.00027030  0.35845396     0.83200
N1358       N  0.44302528  0.98124744  0.38907030    -0.77500
C1359       C  0.46100338  0.95840233  0.40639473     0.83300
N1360       N  0.48959523  0.95489398  0.39316575    -0.79200
Zn1361     Zn  0.64536930  0.49829776  0.21716427     1.49700
Zn1362     Zn  0.64264181  0.57313959  0.18370482     1.49400
Zn1363     Zn  0.63987973  0.56101820  0.27510331     1.49100
Zn1364     Zn  0.70156193  0.55307694  0.22983254     1.49500
O1365       O  0.65806031  0.54614203  0.22689669    -1.83600
O1366       O  0.61392435  0.49771646  0.17531820    -0.74200
O1367       O  0.60552191  0.59746318  0.20128284    -0.74000
O1368       O  0.61679439  0.52289100  0.30004904    -0.73500
O1369       O  0.62636415  0.54342216  0.13988274    -0.74200
O1370       O  0.62150635  0.47690521  0.26214841    -0.73800
O1371       O  0.60683949  0.59439227  0.26554072    -0.74400
O1372       O  0.71368337  0.55921918  0.28922920    -0.73800
O1373       O  0.67280579  0.60978278  0.16612706    -0.74500
O1374       O  0.67036061  0.57773149  0.31363448    -0.73900
O1375       O  0.71329818  0.59990375  0.20133309    -0.74400
O1376       O  0.71932305  0.50970173  0.20031469    -0.74300
O1377       O  0.68489185  0.97102791  0.19744460    -0.74100
C1378       C  0.61031467  0.51646598  0.14557906     0.77700
C1379       C  0.59411897  0.60372783  0.23442568     0.78200
C1380       C  0.60994685  0.49199577  0.29149412     0.77100
C1381       C  0.69830993  0.57247709  0.31719802     0.77500
C1382       C  0.69918749  0.61841803  0.17676651     0.78700
C1383       C  0.71182167  0.98036830  0.18951611     0.77700
C1384       C  0.71290972  0.69288526  0.10583322     0.03700
C1385       C  0.73096217  0.71544462  0.12813413    -0.12500
C1386       C  0.74005277  0.70645994  0.16616414     0.01200
C1387       C  0.73144048  0.67369632  0.18126689    -0.11000
C1388       C  0.71265649  0.65102202  0.15984104     0.03700
C1389       C  0.70375643  0.66122904  0.12242087    -0.10400
H1390       H  0.73743759  0.74029506  0.11627198     0.09300
H1391       H  0.73817893  0.66663551  0.21027636     0.06800
H1392       H  0.68913855  0.64431191  0.10592655     0.06600
C1393       C  0.53672591  0.95627626  0.31324031    -0.20800
C1394       C  0.53071378  0.97225944  0.34898520    -0.08800
C1395       C  0.55250029  0.48152764  0.37038087     0.30100
C1396       C  0.58085735  0.48294518  0.35270840    -0.20800
C1397       C  0.58425849  0.47655100  0.31271862    -0.08800
C1398       C  0.56509485  0.95943927  0.29577512     0.30100
F1399       F  0.56930394  0.94630227  0.25963001    -0.19300
H1400       H  0.51895871  0.94298149  0.29786588     0.18400
H1401       H  0.59983046  0.49173706  0.36956531     0.18400
F1402       F  0.54965997  0.49014225  0.40841733    -0.19300
C1403       C  0.39484180  0.91664052  0.44992436    -0.20800
C1404       C  0.39904028  0.88310205  0.43633410    -0.08800
C1405       C  0.42780384  0.87265523  0.42481958     0.30100
C1406       C  0.45098677  0.89704823  0.42144204    -0.20800
C1407       C  0.44554646  0.93182440  0.42982942    -0.08800
C1408       C  0.41819550  0.94068347  0.44778779     0.30100
F1409       F  0.41256169  0.97388238  0.45762979    -0.19300
H1410       H  0.37302811  0.92469835  0.46015870     0.18400
H1411       H  0.47175846  0.88950645  0.40762278     0.18400
F1412       F  0.43253538  0.83990505  0.41251268    -0.19300
C1413       C  0.52032855  0.63644017  0.27321377    -0.20800
C1414       C  0.51396810  0.66211873  0.24608564    -0.08800
C1415       C  0.53118252  0.66442962  0.21191864     0.30100
C1416       C  0.55646202  0.64395046  0.20716076    -0.20800
C1417       C  0.56513215  0.62149358  0.23683012    -0.08800
C1418       C  0.54593020  0.61651161  0.26899850     0.30100
F1419       F  0.55269557  0.59378272  0.29742650    -0.19300
H1420       H  0.50763120  0.63479790  0.30011640     0.18400
H1421       H  0.57048209  0.64760908  0.18166014     0.18400
F1422       F  0.52564559  0.68942683  0.18551979    -0.19300
C1423       C  0.41369325  0.70100021  0.31775508    -0.20800
C1424       C  0.43025835  0.72839932  0.30118133    -0.08800
C1425       C  0.41655339  0.76042931  0.29665276     0.30100
C1426       C  0.38779309  0.76572774  0.31145975    -0.20800
C1427       C  0.37245834  0.73954783  0.33194755    -0.08800
C1428       C  0.38507866  0.70662824  0.33360080     0.30100
F1429       F  0.37134884  0.68119005  0.35431113    -0.19300
H1430       H  0.42388609  0.67603486  0.32132851     0.18400
H1431       H  0.37874025  0.79150492  0.31055306     0.18400
F1432       F  0.43162767  0.78715250  0.27985596    -0.19300
C1433       C  0.39878713  0.01681119  0.35061014    -0.20800
C1434       C  0.42825919  0.01671504  0.33536435    -0.08800
C1435       C  0.43261999  0.02468659  0.29596434     0.30100
C1436       C  0.40791665  0.02797859  0.27174504    -0.20800
C1437       C  0.37863471  0.02269418  0.28617413    -0.08800
C1438       C  0.37415874  0.01894418  0.32615903     0.30100
F1439       F  0.34617071  0.01506147  0.34124415    -0.19300
H1440       H  0.39457352  0.01184514  0.38111172     0.18400
H1441       H  0.41192459  0.03131194  0.24091230     0.18400
F1442       F  0.46043722  0.02573943  0.27990109    -0.19300
C1443       C  0.58982150  0.50901454  0.07900968    -0.20800
C1444       C  0.58521273  0.50885958  0.11916734    -0.08800
C1445       C  0.55570759  0.50682247  0.13385910     0.30100
C1446       C  0.53127521  0.50941585  0.10871842    -0.20800
C1447       C  0.53602359  0.51351927  0.06864439    -0.08800
C1448       C  0.56548958  0.51037547  0.05386763     0.30100
F1449       F  0.57104555  0.51218720  0.01511274    -0.19300
H1450       H  0.61234002  0.50996124  0.06715602     0.18400
H1451       H  0.50900516  0.51173201  0.12099622     0.18400
F1452       F  0.55055946  0.50643234  0.17274510    -0.19300
C1453       C  0.41572562  0.52272824  0.03938082    -0.20800
C1454       C  0.43244203  0.55300384  0.04507102    -0.08800
C1455       C  0.41856884  0.58161036  0.06244472     0.30100
C1456       C  0.38946496  0.57839294  0.07800794    -0.20800
C1457       C  0.37368469  0.54696082  0.07528050    -0.08800
C1458       C  0.38644776  0.51991202  0.05367540     0.30100
F1459       F  0.37203809  0.48898830  0.05106204    -0.19300
H1460       H  0.42589331  0.50063928  0.02565572     0.18400
H1461       H  0.38274502  0.09543598  0.09577111     0.18400
F1462       F  0.43419068  0.61141028  0.06791030    -0.19300
C1463       C  0.59105001  0.76447991  0.32770560    -0.20800
C1464       C  0.58763000  0.76663726  0.36803184    -0.08800
C1465       C  0.55859150  0.76982292  0.38391141     0.30100
C1466       C  0.53339690  0.76701020  0.36003219    -0.20800
C1467       C  0.53682833  0.76116752  0.32004795    -0.08800
C1468       C  0.56594753  0.76248941  0.30380504     0.30100
F1469       F  0.57020548  0.75827775  0.26502659    -0.19300
H1470       H  0.61315878  0.76238556  0.31486476     0.18400
H1471       H  0.51139575  0.76570334  0.37340689     0.18400
F1472       F  0.55442760  0.77138695  0.42294322    -0.19300
C1473       C  0.54796937  0.65811367  0.99748458    -0.20800
C1474       C  0.57200933  0.64785084  0.97392205    -0.08800
C1475       C  0.56911683  0.61832783  0.95069623     0.30100
C1476       C  0.54383519  0.59711999  0.95475304    -0.20800
C1477       C  0.52119270  0.60541262  0.98162606    -0.08800
C1478       C  0.52241268  0.63728118  0.00090100     0.30100
F1479       F  0.50099315  0.64587055  0.02722816    -0.19300
H1480       H  0.54964227  0.68142208  0.01471769     0.18400
H1481       H  0.54349937  0.57233864  0.94026795     0.18400
F1482       F  0.59199105  0.60811072  0.92737847    -0.19300
C1483       C  0.42575360  0.74730503  0.05419006    -0.20800
C1484       C  0.42132412  0.75853425  0.09243184    -0.08800
C1485       C  0.39156285  0.76259430  0.10603136     0.30100
C1486       C  0.36781575  0.76272466  0.07989630    -0.20800
C1487       C  0.37051415  0.75726559  0.54284950    -0.08800
C1488       C  0.39865216  0.74343260  0.53272873     0.30100
F1489       F  0.40419984  0.73129749  0.49644589    -0.19300
H1490       H  0.44464684  0.73868031  0.54857801     0.18400
H1491       H  0.34572698  0.76967287  0.09018544     0.18400
F1492       F  0.38567300  0.77021423  0.14379721    -0.19300
C1493       C  0.41905294  0.84589945  0.19623559    -0.20800
C1494       C  0.44497679  0.85226565  0.17368457    -0.08800
C1495       C  0.44986979  0.88556640  0.15863672     0.30100
C1496       C  0.42739137  0.91031117  0.16186366    -0.20800
C1497       C  0.39985831  0.90188011  0.17954403    -0.08800
C1498       C  0.39635390  0.87019983  0.19842546     0.30100
F1499       F  0.37030648  0.86202987  0.21695474    -0.19300
H1500       H  0.41477255  0.82046592  0.20816885     0.18400
H1501       H  0.43052743  0.93507109  0.14780714     0.18400
F1502       F  0.47439997  0.89276027  0.13649207    -0.19300
C1503       C  0.53107872  0.80715421  0.05820856    -0.20800
C1504       C  0.52653070  0.79862253  0.09739242    -0.08800
C1505       C  0.55108323  0.78812327  0.11945052     0.30100
C1506       C  0.57928567  0.78410138  0.10177792    -0.20800
C1507       C  0.58370472  0.79155773  0.06214389    -0.08800
C1508       C  0.55941459  0.80409115  0.04079869     0.30100
F1509       F  0.56230918  0.81007344  0.00214216    -0.19300
H1510       H  0.51237008  0.81509890  0.04070558     0.18400
H1511       H  0.59736164  0.77352956  0.11857703     0.18400
F1512       F  0.54730955  0.77943483  0.15733118    -0.19300
C1513       C  0.05677510  0.49698480  0.28190417    -0.20800
C1514       C  0.03217702  0.98240312  0.31081691    -0.08800
C1515       C  0.03871252  0.97004554  0.34803398     0.30100
C1516       C  0.06792084  0.97257346  0.36245750    -0.20800
C1517       C  0.09246016  0.48864817  0.33418452    -0.08800
C1518       C  0.08541896  0.50192405  0.29733914     0.30100
F1519       F  0.10559185  0.52170433  0.27752559    -0.19300
H1520       H  0.05137445  0.50859893  0.25433907     0.18400
H1521       H  0.07197686  0.96495782  0.39215659     0.18400
F1522       F  0.01656708  0.95697988  0.37105570    -0.19300
C1523       C  0.92254283  0.87606523  0.25483110    -0.20800
C1524       C  0.89974678  0.88405136  0.22867466    -0.08800
C1525       C  0.90306382  0.91313035  0.20476036     0.30100
C1526       C  0.92716126  0.93589192  0.21027766    -0.20800
C1527       C  0.94849506  0.92957547  0.23908500    -0.08800
C1528       C  0.94701897  0.89837668  0.25964875     0.30100
F1529       F  0.96696924  0.89171906  0.28808487    -0.19300
H1530       H  0.92068813  0.85326601  0.27284343     0.18400
H1531       H  0.92754678  0.96017277  0.19477614     0.18400
F1532       F  0.88152917  0.92136609  0.17894546    -0.19300
C1533       C  0.03551949  0.67023279  0.45268226    -0.20800
C1534       C  0.01799881  0.66735180  0.41915958    -0.08800
C1535       C  0.02384666  0.64078784  0.39252901     0.30100
C1536       C  0.04947792  0.62103966  0.39636809    -0.20800
C1537       C  0.06896595  0.62667380  0.42748901    -0.08800
C1538       C  0.06072486  0.64963687  0.45718985     0.30100
F1539       F  0.07866827  0.65487341  0.48828850    -0.19300
H1540       H  0.03169167  0.69104354  0.47305337     0.18400
H1541       H  0.05501599  0.60267520  0.37378389     0.18400
F1542       F  0.00771668  0.63785674  0.35942717    -0.19300
C1543       C  0.91605999  0.73866796  0.36740499    -0.20800
C1544       C  0.94000616  0.72523081  0.34599233    -0.08800
C1545       C  0.93522922  0.71384831  0.30780987     0.30100
C1546       C  0.90712619  0.71751260  0.29065757    -0.20800
C1547       C  0.88366776  0.73344027  0.31101510    -0.08800
C1548       C  0.88818084  0.74316695  0.34999068     0.30100
F1549       F  0.86617070  0.75899291  0.37042614    -0.19300
H1550       H  0.91941942  0.74740698  0.39694713     0.18400
H1551       H  0.90450339  0.71065221  0.26037457     0.18400
F1552       F  0.95811653  0.70064902  0.28658849    -0.19300
C1553       C  0.09912981  0.76039369  0.32976200    -0.20800
C1554       C  0.09411988  0.77143289  0.29175824    -0.08800
C1555       C  0.06541566  0.78357886  0.28212657     0.30100
C1556       C  0.04140949  0.77925013  0.30799229    -0.20800
C1557       C  0.04563772  0.76335108  0.34399391    -0.08800
C1558       C  0.07529661  0.75693456  0.35597217     0.30100
F1559       F  0.08113676  0.74408243  0.39170463    -0.19300
H1560       H  0.12112111  0.75203472  0.33841303     0.18400
H1561       H  0.01913532  0.78544169  0.29827788     0.18400
F1562       F  0.05964166  0.79624091  0.24629568    -0.19300
C1563       C  0.90682161  0.77265684  0.05299994    -0.20800
C1564       C  0.93564565  0.77360838  0.06946688    -0.08800
C1565       C  0.93855423  0.76412615  0.10863853     0.30100
C1566       C  0.91284837  0.75868289  0.13171294    -0.20800
C1567       C  0.88409698  0.76318755  0.11619896    -0.08800
C1568       C  0.88129831  0.76832795  0.07619873     0.30100
F1569       F  0.85390275  0.77189012  0.06007808    -0.19300
H1570       H  0.90378735  0.77896106  0.02267603     0.18400
H1571       H  0.91548594  0.75454878  0.16257627     0.18400
F1572       F  0.96578796  0.76404658  0.12573708    -0.19300
C1573       C  0.08703383  0.78365626  0.05580528    -0.20800
C1574       C  0.09887939  0.80701900  0.08305946    -0.08800
C1575       C  0.08237030  0.83661959  0.09232211     0.30100
C1576       C  0.05362477  0.84111512  0.07695362    -0.20800
C1577       C  0.04073034  0.81569438  0.05305117    -0.08800
C1578       C  0.05811761  0.78765032  0.04130399     0.30100
F1579       F  0.04640519  0.76297043  0.01773192    -0.19300
H1580       H  0.09885812  0.76012325  0.04915076     0.18400
H1581       H  0.04054116  0.86302361  0.08617278     0.18400
F1582       F  0.09257816  0.85905386  0.11956636    -0.19300
C1583       C  0.90477233  0.03501127  0.38307535    -0.20800
C1584       C  0.87635029  0.02856393  0.36716802    -0.08800
C1585       C  0.87361735  0.02516890  0.32694685     0.30100
C1586       C  0.89927299  0.02391783  0.30364322    -0.20800
C1587       C  0.92802981  0.02422464  0.32037370    -0.08800
C1588       C  0.93057958  0.03258853  0.35995660     0.30100
F1589       F  0.95769288  0.03418669  0.37733914    -0.19300
H1590       H  0.90725526  0.03810696  0.41411338     0.18400
H1591       H  0.89652771  0.01870257  0.27299431     0.18400
F1592       F  0.84634994  0.02036637  0.31060315    -0.19300
C1593       C  0.92431393  0.92020185  0.00672152    -0.20800
C1594       C  0.90275074  0.90976470  0.97955394    -0.08800
C1595       C  0.90899459  0.88224444  0.95440899     0.30100
C1596       C  0.93476502  0.86288696  0.95978714    -0.20800
C1597       C  0.95463419  0.87093501  0.98997666    -0.08800
C1598       C  0.95035804  0.90118747  0.01158988     0.30100
F1599       F  0.96905443  0.90949003  0.04111076    -0.19300
H1600       H  0.92024336  0.94205982  0.02556817     0.18400
H1601       H  0.93738050  0.83922514  0.94341907     0.18400
F1602       F  0.88745486  0.87083452  0.42980864    -0.19300
C1603       C  0.09391826  0.50609206  0.07334092    -0.20800
C1604       C  0.09212520  0.50702214  0.52697496    -0.08800
C1605       C  0.06335790  0.50769610  0.51063335     0.30100
C1606       C  0.03674522  0.51029342  0.04101351    -0.20800
C1607       C  0.03995373  0.51209612  0.08143101    -0.08800
C1608       C  0.06861662  0.50717306  0.09738446     0.30100
F1609       F  0.07250066  0.50706210  0.13642756    -0.19300
H1610       H  0.11593505  0.50556925  0.08622734     0.18400
H1611       H  0.01651806  0.51446852  0.52139423     0.18400
F1612       F  0.05997537  0.51052667  0.47164373    -0.19300
C1613       C  0.07280923  0.62070075  0.19269333    -0.20800
C1614       C  0.06969270  0.65310863  0.17568404    -0.08800
C1615       C  0.04214532  0.66216152  0.15935294     0.30100
C1616       C  0.01925143  0.63743525  0.15602073    -0.20800
C1617       C  0.02369350  0.60370825  0.16919575    -0.08800
C1618       C  0.04974804  0.59633186  0.19019573     0.30100
F1619       F  0.05432942  0.56415265  0.20415162    -0.19300
H1620       H  0.09362779  0.61375252  0.20635824     0.18400
H1621       H  0.99962121  0.64355948  0.13926195     0.18400
F1622       F  0.03857100  0.69362058  0.14297140    -0.19300
C1623       C  0.92744760  0.57257278  0.07013879    -0.20800
C1624       C  0.93663943  0.55279680  0.10180887    -0.08800
C1625       C  0.91597653  0.53068011  0.12017334     0.30100
C1626       C  0.88723429  0.52630387  0.10500014    -0.20800
C1627       C  0.87865222  0.54378315  0.07110657    -0.08800
C1628       C  0.89861615  0.56830331  0.05491048     0.30100
F1629       F  0.89158396  0.58535055  0.02193591    -0.19300
H1630       H  0.94321050  0.58980899  0.05576574     0.18400
H1631       H  0.87244451  0.50719744  0.11805525     0.18400
F1632       F  0.92425096  0.51159185  0.15117415    -0.19300
C1633       C  0.97070673  0.55474812  0.60557813     0.80800
N1634       N  0.98126898  0.57430578  0.63553667    -0.77500
C1635       C  0.00991992  0.57032917  0.64773538     0.83200
N1636       N  0.02748751  0.54722918  0.62957070    -0.77500
C1637       C  0.01791094  0.52843116  0.59911713     0.83300
N1638       N  0.98942299  0.53273072  0.58654150    -0.79200
Zn1639     Zn  0.82700824  0.96868785  0.52169505     1.49700
Zn1640     Zn  0.81816142  0.52855242  0.97428138     1.49400
Zn1641     Zn  0.82376081  0.95674708  0.93135593     1.49100
Zn1642     Zn  0.76451698  0.97492299  0.47881908     1.49500
O1643       O  0.80752666  0.98376273  0.47509505    -1.83600
O1644       O  0.84991859  0.00677450  0.54704251    -0.74200
O1645       O  0.85150606  0.03136947  0.92334448    -0.74000
O1646       O  0.86132103  0.93594167  0.44411544    -0.73500
O1647       O  0.84466032  0.55315682  0.50983511    -0.74200
O1648       O  0.86096242  0.93728928  0.50864773    -0.73800
O1649       O  0.83739432  0.98708812  0.88697383    -0.74400
O1650       O  0.75421152  0.92778291  0.45073116    -0.73800
O1651       O  0.78249068  0.55558119  0.95407857    -0.74500
O1652       O  0.79468390  0.91970514  0.91446367    -0.73900
O1653       O  0.74711002  0.51735069  0.44955645    -0.74400
O1654       O  0.75347265  0.96832561  0.53858736    -0.74300
O1655       O  0.79733498  0.94991976  0.56072077    -0.74100
C1656       C  0.85593795  0.53919141  0.53976221     0.77700
C1657       C  0.85406296  0.01342260  0.89271117     0.78200
C1658       C  0.87334430  0.92927241  0.47651560     0.77100
C1659       C  0.76867018  0.91024481  0.92590989     0.77500
C1660       C  0.75658584  0.54566351  0.94268253     0.78700
C1661       C  0.76937931  0.95486878  0.56556215     0.77700
C1662       C  0.75606277  0.87743043  0.90912120     0.03700
C1663       C  0.76492389  0.86770972  0.87130989    -0.12500
C1664       C  0.75693347  0.83558741  0.85500578     0.01200
C1665       C  0.74012239  0.81210422  0.87816211    -0.11000
C1666       C  0.73106812  0.82089866  0.91659701     0.03700
C1667       C  0.73847833  0.85404738  0.93124170    -0.10400
H1668       H  0.77867383  0.88537391  0.85432802     0.09300
H1669       H  0.73446684  0.78690269  0.86660031     0.06800
H1670       H  0.73176433  0.86093272  0.96049706     0.06600
C1671       C  0.00780892  0.82449807  0.55026991     0.80800
N1672       N  0.98831499  0.80108929  0.56655496    -0.77500
C1673       C  0.95918307  0.79995497  0.55521810     0.83200
N1674       N  0.95004561  0.82251746  0.52822148    -0.77500
C1675       C  0.96866074  0.84644322  0.51269759     0.83300
N1676       N  0.99769933  0.84800137  0.52418820    -0.79200
Zn1677     Zn  0.11736985  0.74475153  0.68503110     1.49700
Zn1678     Zn  0.16183803  0.68682258  0.65904397     1.49400
Zn1679     Zn  0.17806402  0.76813501  0.64642438     1.49100
Zn1680     Zn  0.17210757  0.73183835  0.73377158     1.49500
O1681       O  0.15890581  0.73314243  0.68028450    -1.83600
O1682       O  0.09123287  0.70330584  0.68572460    -0.74200
O1683       O  0.17774145  0.68944453  0.60404595    -0.74000
O1684       O  0.14525637  0.79831278  0.61941628    -0.73500
O1685       O  0.12127024  0.66248349  0.66346232    -0.74200
O1686       O  0.10390752  0.77328388  0.64263579    -0.73800
O1687       O  0.19815756  0.74211822  0.59990149    -0.74400
O1688       O  0.20248634  0.77048328  0.73935175    -0.73800
O1689       O  0.18989563  0.65658600  0.68950965    -0.74500
O1690       O  0.20748188  0.79733426  0.68219870    -0.73900
O1691       O  0.19113104  0.68472228  0.74568656    -0.74400
O1692       O  0.13672573  0.74088001  0.77184640    -0.74300
O1693       O  0.10748559  0.77006115  0.73288395    -0.74100
C1694       C  0.09575606  0.67232914  0.67586624     0.77700
C1695       C  0.19331010  0.71194726  0.58554119     0.78200
C1696       C  0.11671389  0.79453144  0.62006847     0.77100
C1697       C  0.21418806  0.79434165  0.71839518     0.77500
C1698       C  0.19727891  0.65816241  0.72506158     0.78700
C1699       C  0.11329201  0.75882727  0.76638318     0.77700
C1700       C  0.21334986  0.59030428  0.80076555     0.03700
C1701       C  0.23082620  0.56680738  0.77962572    -0.12500
C1702       C  0.23824312  0.57256211  0.73998600     0.01200
C1703       C  0.22783098  0.60299841  0.72211382    -0.11000
C1704       C  0.21105760  0.62746039  0.74353852     0.03700
C1705       C  0.20430072  0.62073844  0.78265706    -0.10400
H1706       H  0.23747362  0.54322673  0.79373756     0.09300
H1707       H  0.23278444  0.60770940  0.69175545     0.06800
H1708       H  0.19036263  0.63854179  0.79872985     0.06600
C1709       C  0.96505199  0.71818383  0.86902790     0.80800
N1710       N  0.98714902  0.74050435  0.85706638    -0.77500
C1711       C  0.01576256  0.73663914  0.86958447     0.83200
N1712       N  0.02154226  0.71068302  0.89417354    -0.77500
C1713       C  0.00021414  0.68793853  0.90559701     0.83300
N1714       N  0.97190311  0.69091776  0.89203866    -0.79200
Zn1715     Zn  0.76574951  0.80557984  0.72904815     1.49700
Zn1716     Zn  0.82178280  0.75252422  0.71797802     1.49400
Zn1717     Zn  0.82310013  0.82466279  0.67834480     1.49100
Zn1718     Zn  0.82760566  0.81995665  0.76947529     1.49500
O1719       O  0.80891878  0.80034655  0.72451562    -1.83600
O1720       O  0.74818998  0.76206609  0.69903579    -0.74200
O1721       O  0.85498239  0.75272280  0.67739064    -0.74000
O1722       O  0.79275215  0.85868301  0.65964647    -0.73500
O1723       O  0.78592488  0.72447423  0.69641063    -0.74200
O1724       O  0.75441165  0.85187243  0.70062252    -0.73800
O1725       O  0.83807028  0.79217278  0.63697971    -0.74400
O1726       O  0.85979047  0.85470857  0.75504009    -0.73800
O1727       O  0.84343729  0.73378230  0.76645181    -0.74500
O1728       O  0.85995951  0.85269743  0.69059197    -0.73900
O1729       O  0.85117228  0.78413642  0.79529615    -0.74400
O1730       O  0.79719262  0.83535385  0.80958384    -0.74300
O1731       O  0.75465523  0.81086048  0.78936492    -0.74100
C1732       C  0.75895138  0.73275510  0.68844362     0.77700
C1733       C  0.85698047  0.76911149  0.64549696     0.78200
C1734       C  0.76761610  0.86860569  0.67310394     0.77100
C1735       C  0.87151819  0.86258062  0.72233307     0.77500
C1736       C  0.85609972  0.75210077  0.79270640     0.78700
C1737       C  0.76996133  0.82644070  0.81586070     0.77700
C1738       C  0.75504598  0.90120965  0.65669463     0.03700
C1739       C  0.73770847  0.92403590  0.67935131    -0.12500
C1740       C  0.73068814  0.95728180  0.66541614     0.01200
C1741       C  0.73970323  0.96679192  0.62738330    -0.11000
C1742       C  0.75617593  0.94402439  0.60378129     0.03700
C1743       C  0.76396710  0.91171898  0.61907242    -0.10400
H1744       H  0.73092999  0.91669672  0.70846849     0.09300
H1745       H  0.73431208  0.99210917  0.61645025     0.06800
H1746       H  0.77771272  0.89478229  0.60157932     0.06600
C1747       C  0.00309535  0.97582079  0.79028530     0.80800
N1748       N  0.98304206  0.99749824  0.80737898    -0.77500
C1749       C  0.95431330  0.99854582  0.79461119     0.83200
N1750       N  0.94605373  0.97734771  0.76544023    -0.77500
C1751       C  0.96505928  0.95457891  0.74941976     0.83300
N1752       N  0.99375486  0.95338318  0.76224673    -0.79200
Zn1753     Zn  0.15164998  0.50325281  0.93447717     1.49700
Zn1754     Zn  0.20440425  0.56071462  0.92421257     1.49400
Zn1755     Zn  0.14285367  0.56968147  0.88318016     1.49100
Zn1756     Zn  0.14617793  0.57469400  0.97393559     1.49500
O1757       O  0.16176541  0.55166678  0.92832927    -1.83600
O1758       O  0.19064020  0.97750977  0.95225360    -0.74200
O1759       O  0.21552118  0.56600961  0.86545238    -0.74000
O1760       O  0.12053779  0.53255901  0.85606285    -0.73500
O1761       O  0.22427791  0.51956173  0.95305510    -0.74200
O1762       O  0.12817774  0.48394032  0.88841472    -0.73800
O1763       O  0.17289600  0.58904502  0.84521000    -0.74400
O1764       O  0.10667804  0.59555221  0.96135887    -0.73800
O1765       O  0.21396037  0.60804637  0.95072597    -0.74500
O1766       O  0.10867293  0.60054924  0.89724303    -0.73900
O1767       O  0.17415050  0.61354631  0.98935388    -0.74400
O1768       O  0.13420164  0.54146248  0.01668545    -0.74300
O1769       O  0.12017050  0.49984812  0.97639224    -0.74100
C1770       C  0.21654297  0.98911400  0.96185266     0.77700
C1771       C  0.20026306  0.58139987  0.83939675     0.78200
C1772       C  0.11513390  0.50080538  0.86175026     0.77100
C1773       C  0.09505580  0.60461473  0.92953724     0.77500
C1774       C  0.19926651  0.62491018  0.97641531     0.78700
C1775       C  0.11708885  0.51605270  0.00820114     0.77700
C1776       C  0.21050531  0.65871124  0.99198784     0.03700
C1777       C  0.22907352  0.68169012  0.97030279    -0.12500
C1778       C  0.23652118  0.71475539  0.98533525     0.01200
C1779       C  0.22515074  0.72414162  0.02236415    -0.11000
C1780       C  0.20560281  0.70227252  0.54636226     0.03700
C1781       C  0.20010993  0.66911590  0.02883746    -0.10400
H1782       H  0.23725644  0.67412237  0.94191692     0.09300
H1783       H  0.22768937  0.75073464  0.53627959     0.06800
H1784       H  0.18572893  0.65145892  0.54707647     0.06600
C1785       C  0.49435094  0.79826932  0.61405002     0.80800
N1786       N  0.48698023  0.82281655  0.64079117    -0.77500
C1787       C  0.45869228  0.82355934  0.65573254     0.83200
N1788       N  0.43822448  0.80042069  0.64317389    -0.77500
C1789       C  0.44442646  0.77705974  0.61544151     0.83300
N1790       N  0.47272955  0.77627315  0.60040561    -0.79200
Zn1791     Zn  0.70344721  0.72366336  0.47879677     1.49700
Zn1792     Zn  0.64931974  0.77675724  0.96900545     1.49400
Zn1793     Zn  0.64866053  0.70460904  0.92980246     1.49100
Zn1794     Zn  0.64132469  0.71099722  0.52141063     1.49500
O1795       O  0.66012686  0.72929267  0.47495706    -1.83600
O1796       O  0.72107213  0.76730026  0.44892514    -0.74200
O1797       O  0.61911391  0.77776247  0.92608876    -0.74000
O1798       O  0.67874733  0.66970075  0.91180818    -0.73500
O1799       O  0.68575476  0.80493208  0.94959805    -0.74200
O1800       O  0.71498077  0.67709954  0.45026979    -0.73800
O1801       O  0.63402298  0.73584010  0.88706035    -0.74400
O1802       O  0.61056891  0.67488632  0.50755514    -0.73800
O1803       O  0.62120417  0.79465832  0.51282626    -0.74500
O1804       O  0.60998355  0.67681766  0.44300797    -0.73900
O1805       O  0.61503589  0.74610787  0.54624631    -0.74400
O1806       O  0.67180192  0.69656193  0.56148425    -0.74300
O1807       O  0.71495969  0.71813895  0.53869666    -0.74100
C1808       C  0.71250833  0.79620663  0.94052963     0.77700
C1809       C  0.61693829  0.76111009  0.89446201     0.78200
C1810       C  0.70368196  0.65970390  0.92519908     0.77100
C1811       C  0.59873004  0.66707828  0.47512458     0.77500
C1812       C  0.60817669  0.77720265  0.53970422     0.78700
C1813       C  0.69950335  0.70383555  0.56619130     0.77700
C1814       C  0.71489985  0.58392581  0.85600875     0.03700
C1815       C  0.73030896  0.56054334  0.87990953    -0.12500
C1816       C  0.73903642  0.56999084  0.91812313     0.01200
C1817       C  0.73250247  0.60355528  0.93186699    -0.11000
C1818       C  0.71617128  0.62682253  0.90899606     0.03700
C1819       C  0.70788224  0.61656596  0.87126420    -0.10400
H1820       H  0.73509423  0.53494783  0.86910735     0.09300
H1821       H  0.73881795  0.61084226  0.96106567     0.06800
H1822       H  0.69495261  0.63399155  0.85367793     0.06600
C1823       C  0.46176947  0.56205026  0.54390932     0.80800
N1824       N  0.47322505  0.58293431  0.51566868    -0.77500
C1825       C  0.50250076  0.58051857  0.50541037     0.83200
N1826       N  0.52013091  0.55822515  0.52419092    -0.77500
C1827       C  0.50966610  0.53829513  0.55340781     0.83300
N1828       N  0.48022342  0.54052550  0.56379667    -0.79200
Zn1829     Zn  0.35141012  0.99572963  0.68374102     1.49700
Zn1830     Zn  0.29912921  0.98119419  0.73225913     1.49400
Zn1831     Zn  0.28959722  0.51987394  0.64350793     1.49100
Zn1832     Zn  0.30974185  0.93738861  0.65627590     1.49500
O1833       O  0.31072852  0.98267380  0.67841758    -1.83600
O1834       O  0.35849232  0.02832017  0.72602965    -0.74200
O1835       O  0.26810430  0.52205316  0.73851889    -0.74000
O1836       O  0.32274993  0.54964205  0.61507612    -0.73500
O1837       O  0.33570130  0.99295410  0.76693179    -0.74200
O1838       O  0.36628347  0.01603267  0.63701995    -0.73800
O1839       O  0.26278503  0.54952229  0.68191008    -0.74400
O1840       O  0.29269464  0.94129761  0.60200022    -0.73800
O1841       O  0.28138455  0.93267481  0.74471508    -0.74500
O1842       O  0.27036486  0.99246929  0.60033961    -0.73900
O1843       O  0.28304923  0.90527161  0.68787032    -0.74400
O1844       O  0.35161241  0.91623126  0.65949051    -0.74300
O1845       O  0.37751029  0.95599857  0.69204498    -0.74100
C1846       C  0.35646591  0.01503528  0.75939920     0.77700
C1847       C  0.25714646  0.54664674  0.71859514     0.78200
C1848       C  0.35012729  0.54134214  0.60966589     0.77100
C1849       C  0.27611792  0.96312625  0.58478962     0.77500
C1850       C  0.27593699  0.90595998  0.72374955     0.78700
C1851       C  0.37520360  0.92619041  0.67730733     0.77700
C1852       C  0.26441773  0.83372403  0.79672324     0.03700
C1853       C  0.27234810  0.86549573  0.77966299    -0.12500
C1854       C  0.26334540  0.87399187  0.74193096     0.01200
C1855       C  0.24513618  0.85034563  0.72105368    -0.11000
C1856       C  0.23555785  0.81890292  0.73812429     0.03700
C1857       C  0.24580766  0.81091275  0.77586309    -0.10400
H1858       H  0.28694012  0.88320398  0.79509158     0.09300
H1859       H  0.23812914  0.85666736  0.69193538     0.06800
H1860       H  0.23940728  0.78662015  0.78913000     0.06600
C1861       C  0.46747329  0.72977900  0.79062154     0.80800
N1862       N  0.47644619  0.70217463  0.76911968    -0.77500
C1863       C  0.50582152  0.69906259  0.75943987     0.83200
N1864       N  0.52598935  0.72205873  0.77305034    -0.77500
C1865       C  0.51791289  0.74839445  0.79620633     0.83300
N1866       N  0.48841601  0.75223677  0.80518999    -0.79200
Zn1867     Zn  0.29631687  0.80400470  0.98219955     1.49700
Zn1868     Zn  0.29326745  0.76843412  0.89420898     1.49400
Zn1869     Zn  0.30971274  0.84910600  0.90778421     1.49100
Zn1870     Zn  0.34931502  0.79170807  0.93645441     1.49500
O1871       O  0.30931889  0.80372083  0.92912005    -1.83600
O1872       O  0.26617621  0.76557836  0.98527671    -0.74200
O1873       O  0.27147508  0.79434587  0.85014136    -0.74000
O1874       O  0.28299454  0.88011620  0.93924788    -0.73500
O1875       O  0.26566468  0.73595619  0.92940812    -0.74200
O1876       O  0.27888443  0.85213658  0.99551712    -0.73800
O1877       O  0.29331143  0.84642511  0.85310484    -0.74400
O1878       O  0.37465220  0.83165512  0.94950488    -0.73800
O1879       O  0.32868946  0.74453284  0.86369255    -0.74500
O1880       O  0.35184927  0.87020225  0.91266361    -0.73900
O1881       O  0.36615225  0.77487515  0.88889428    -0.74400
O1882       O  0.35403813  0.75672892  0.97669914    -0.74300
O1883       O  0.33075941  0.78973391  0.01899167    -0.74100
C1884       C  0.25704551  0.73996316  0.96497901     0.77700
C1885       C  0.27683615  0.82426381  0.83549821     0.78200
C1886       C  0.27452656  0.87894902  0.97460573     0.77100
C1887       C  0.37408895  0.86080013  0.93308723     0.77500
C1888       C  0.35611105  0.75469133  0.86324960     0.78700
C1889       C  0.35079261  0.76737237  0.01114155     0.77700
C1890       C  0.26166583  0.91071042  0.99201930     0.03700
C1891       C  0.27009828  0.92040960  0.02959982    -0.12500
C1892       C  0.26415482  0.95359453  0.54552807     0.01200
C1893       C  0.24637433  0.97595412  0.02200446    -0.11000
C1894       C  0.23653336  0.96618757  0.98453574     0.03700
C1895       C  0.24449203  0.93359396  0.96981794    -0.10400
H1896       H  0.28378958  0.90289275  0.54688849     0.09300
H1897       H  0.24250622  0.00210328  0.53351787     0.06800
H1898       H  0.23769746  0.92626813  0.94080364     0.06600
C1899       C  0.50265575  0.97504015  0.86465444     0.80800
N1900       N  0.48359037  0.99693225  0.84645799    -0.77500
C1901       C  0.45471896  0.99950794  0.85897995     0.83200
N1902       N  0.44552467  0.97983081  0.88899713    -0.77500
C1903       C  0.46356089  0.95708922  0.90632709     0.83300
N1904       N  0.49233155  0.95419598  0.89374425    -0.79200
Zn1905     Zn  0.64693711  0.50081288  0.71903388     1.49700
Zn1906     Zn  0.64514084  0.57435617  0.68367577     1.49400
Zn1907     Zn  0.64280271  0.56465205  0.77522998     1.49100
Zn1908     Zn  0.70391338  0.55499654  0.73019077     1.49500
O1909       O  0.66051266  0.54842008  0.72762954    -1.83600
O1910       O  0.61352225  0.50138845  0.67954533    -0.74200
O1911       O  0.60866656  0.59984218  0.70079954    -0.74000
O1912       O  0.61948188  0.52724877  0.80062957    -0.73500
O1913       O  0.62810483  0.54415208  0.64102585    -0.74200
O1914       O  0.62512639  0.47950729  0.76605188    -0.73800
O1915       O  0.61053335  0.59879235  0.76513469    -0.74400
O1916       O  0.71646173  0.56043458  0.78980647    -0.73800
O1917       O  0.67519552  0.61000547  0.66463921    -0.74500
O1918       O  0.67352931  0.58027836  0.81389681    -0.73900
O1919       O  0.71534477  0.60165897  0.70104614    -0.74400
O1920       O  0.72072280  0.51163781  0.70009429    -0.74300
O1921       O  0.68566966  0.97180021  0.69839682    -0.74100
C1922       C  0.61017892  0.51935326  0.64910764     0.77700
C1923       C  0.59772879  0.60744159  0.73381822     0.78200
C1924       C  0.61341162  0.49568946  0.79457414     0.77100
C1925       C  0.70125699  0.57390806  0.81782702     0.77500
C1926       C  0.70130560  0.61928172  0.67555019     0.78700
C1927       C  0.71229570  0.98140715  0.68928751     0.77700
C1928       C  0.71301226  0.69412546  0.60459073     0.03700
C1929       C  0.73064505  0.71712140  0.62704686    -0.12500
C1930       C  0.74028390  0.70800518  0.66488448     0.01200
C1931       C  0.73262584  0.67490621  0.67962078    -0.11000
C1932       C  0.71425922  0.65190167  0.65823666     0.03700
C1933       C  0.70483901  0.66204411  0.62097554    -0.10400
H1934       H  0.73637806  0.74230498  0.61548147     0.09300
H1935       H  0.73965978  0.66785462  0.70851564     0.06800
H1936       H  0.69047093  0.64480597  0.60453131     0.06600
C1937       C  0.54173984  0.95398032  0.81856375    -0.20800
C1938       C  0.53403250  0.97308656  0.85169408    -0.08800
C1939       C  0.55429489  0.49150151  0.87202158     0.30100
C1940       C  0.58277255  0.49478657  0.85519350    -0.20800
C1941       C  0.58906329  0.48019355  0.81858683    -0.08800
C1942       C  0.57046314  0.95708600  0.80210712     0.30100
F1943       F  0.57629412  0.94072310  0.76807770    -0.19300
H1944       H  0.52499758  0.93820598  0.80420703     0.18400
H1945       H  0.59912965  0.51136189  0.86917890     0.18400
F1946       F  0.54813679  0.50863648  0.90546556    -0.19300
C1947       C  0.39793056  0.91625444  0.95210432    -0.20800
C1948       C  0.40050876  0.88320277  0.93642870    -0.08800
C1949       C  0.42825879  0.87223468  0.92179182     0.30100
C1950       C  0.45205939  0.89575099  0.91818218    -0.20800
C1951       C  0.44821014  0.93022813  0.92924569    -0.08800
C1952       C  0.42192174  0.93945456  0.94945181     0.30100
F1953       F  0.41788552  0.97244945  0.96136843    -0.19300
H1954       H  0.37687481  0.92464202  0.96447958     0.18400
H1955       H  0.47190165  0.88809059  0.90226133     0.18400
F1956       F  0.43124202  0.83999411  0.90699135    -0.19300
C1957       C  0.52431587  0.64170101  0.77165759    -0.20800
C1958       C  0.51836295  0.66724395  0.74419702    -0.08800
C1959       C  0.53581822  0.66909818  0.71018994     0.30100
C1960       C  0.56086799  0.64819069  0.70585934    -0.20800
C1961       C  0.56910034  0.62585189  0.73584850    -0.08800
C1962       C  0.54974690  0.62144975  0.76792910     0.30100
F1963       F  0.55620566  0.59893620  0.79670299    -0.19300
H1964       H  0.51147303  0.64044889  0.79846882     0.18400
H1965       H  0.57506445  0.65140319  0.68044471     0.18400
F1966       F  0.53074042  0.69401032  0.68352387    -0.19300
C1967       C  0.41797291  0.70608219  0.81432516    -0.20800
C1968       C  0.43551701  0.73409725  0.80091636    -0.08800
C1969       C  0.42300711  0.76704663  0.80051013     0.30100
C1970       C  0.39448713  0.77228140  0.81596631    -0.20800
C1971       C  0.37807028  0.74505008  0.83307106    -0.08800
C1972       C  0.38951299  0.71155329  0.83085355     0.30100
F1973       F  0.37475106  0.68494870  0.84826739    -0.19300
H1974       H  0.42724225  0.68042757  0.81483148     0.18400
H1975       H  0.38630805  0.79842400  0.81791811     0.18400
F1976       F  0.43899632  0.79454851  0.78701076    -0.19300
C1977       C  0.40144633  0.01589137  0.85125703    -0.20800
C1978       C  0.43089393  0.01604749  0.83591825    -0.08800
C1979       C  0.43507895  0.02424668  0.79653766     0.30100
C1980       C  0.41021423  0.02740398  0.77241545    -0.20800
C1981       C  0.38096679  0.02182754  0.78697768    -0.08800
C1982       C  0.37671741  0.01787293  0.82696343     0.30100
F1983       F  0.34882456  0.01370516  0.84223672    -0.19300
H1984       H  0.39733360  0.01082576  0.88176024     0.18400
H1985       H  0.41405898  0.03099552  0.74158768     0.18400
F1986       F  0.46288497  0.02580351  0.78046711    -0.19300
C1987       C  0.58591043  0.51080605  0.58479958    -0.20800
C1988       C  0.58330077  0.51399100  0.62509390    -0.08800
C1989       C  0.55464157  0.51744025  0.64193059     0.30100
C1990       C  0.52941331  0.52125059  0.61839705    -0.20800
C1991       C  0.53243621  0.52132360  0.57780877    -0.08800
C1992       C  0.56067113  0.51362246  0.56135170     0.30100
F1993       F  0.56437304  0.51182856  0.52224445    -0.19300
H1994       H  0.60772298  0.50780348  0.57136538     0.18400
H1995       H  0.50816642  0.52739427  0.63190104     0.18400
F1996       F  0.55150957  0.52101130  0.68095455    -0.19300
C1997       C  0.40877594  0.54371726  0.53507647    -0.20800
C1998       C  0.42985562  0.56431465  0.55445017    -0.08800
C1999       C  0.42044990  0.58524174  0.58535340     0.30100
C2000       C  0.39092909  0.58279180  0.59918765    -0.20800
C2001       C  0.37062830  0.55911152  0.58270449    -0.08800
C2002       C  0.37931877  0.54108010  0.54906858     0.30100
F2003       F  0.36058483  0.51726169  0.53314692    -0.19300
H2004       H  0.41569797  0.52779939  0.51092707     0.18400
H2005       H  0.38794239  0.09478517  0.60869404     0.18400
F2006       F  0.44037287  0.60588767  0.60409722    -0.19300
C2007       C  0.59622469  0.76696299  0.82774642    -0.20800
C2008       C  0.59209564  0.76880633  0.86799109    -0.08800
C2009       C  0.56292671  0.77275906  0.88309697     0.30100
C2010       C  0.53816385  0.77103515  0.85849653    -0.20800
C2011       C  0.54215304  0.76537017  0.81857359    -0.08800
C2012       C  0.57152538  0.76594762  0.80310790     0.30100
F2013       F  0.57632825  0.76197104  0.76440129    -0.19300
H2014       H  0.61849685  0.76434029  0.81554265     0.18400
H2015       H  0.51594201  0.77031506  0.87127525     0.18400
F2016       F  0.55809755  0.77392848  0.92202928    -0.19300
C2017       C  0.54687571  0.65960212  0.49896991    -0.20800
C2018       C  0.57021089  0.64811997  0.47501207    -0.08800
C2019       C  0.56597113  0.61864554  0.45198735     0.30100
C2020       C  0.54015109  0.59842176  0.45704607    -0.20800
C2021       C  0.51822847  0.60796173  0.48436524    -0.08800
C2022       C  0.52072830  0.63999454  0.50312353     0.30100
F2023       F  0.50007199  0.64973520  0.52996782    -0.19300
H2024       H  0.54953250  0.68296463  0.51593566     0.18400
H2025       H  0.53879659  0.57349284  0.44290833     0.18400
F2026       F  0.58797371  0.60757839  0.42778867    -0.19300
C2027       C  0.42252273  0.74569227  0.55864352    -0.20800
C2028       C  0.41851826  0.76085906  0.59522445    -0.08800
C2029       C  0.38894352  0.76800025  0.60778485     0.30100
C2030       C  0.36538325  0.76695756  0.58144327    -0.20800
C2031       C  0.37306172  0.75689187  0.04035933    -0.08800
C2032       C  0.40182717  0.74615578  0.02833948     0.30100
F2033       F  0.40780696  0.73853011  0.99062558    -0.19300
H2034       H  0.44812588  0.74297934  0.04305197     0.18400
H2035       H  0.34367613  0.77629007  0.59053056     0.18400
F2036       F  0.38311588  0.77962949  0.64424419    -0.19300
C2037       C  0.42124101  0.84847622  0.69980321    -0.20800
C2038       C  0.44622154  0.85402312  0.67529979    -0.08800
C2039       C  0.45030530  0.88662074  0.65810771     0.30100
C2040       C  0.42764208  0.91111068  0.66092121    -0.20800
C2041       C  0.40078993  0.90313669  0.68047048    -0.08800
C2042       C  0.39834782  0.87256367  0.70175443     0.30100
F2043       F  0.37310154  0.86514599  0.72242226    -0.19300
H2044       H  0.41764405  0.82358137  0.71340049     0.18400
H2045       H  0.43001884  0.93515099  0.64516703     0.18400
F2046       F  0.47396375  0.89300517  0.63413087    -0.19300
C2047       C  0.52889669  0.80576603  0.55727066    -0.20800
C2048       C  0.52476100  0.79785899  0.59668863    -0.08800
C2049       C  0.54954193  0.78778133  0.61856125     0.30100
C2050       C  0.57760804  0.78368740  0.60057604    -0.20800
C2051       C  0.58168127  0.79073724  0.56079908    -0.08800
C2052       C  0.55711095  0.80266252  0.53953064     0.30100
F2053       F  0.55967810  0.80818851  0.50075526    -0.19300
H2054       H  0.51001271  0.81345285  0.53993370     0.18400
H2055       H  0.59589468  0.77352903  0.61731936     0.18400
F2056       F  0.54614270  0.77970739  0.65666961    -0.19300
C2057       C  0.05499950  0.49149089  0.78695966    -0.20800
C2058       C  0.03401137  0.97453009  0.80495306    -0.08800
C2059       C  0.03974325  0.96158066  0.84216288     0.30100
C2060       C  0.06825819  0.96532612  0.85846022    -0.20800
C2061       C  0.08886495  0.48620506  0.84170142    -0.08800
C2062       C  0.08400683  0.49321504  0.80218117     0.30100
F2063       F  0.10698497  0.50406209  0.77909374    -0.19300
H2064       H  0.05148576  0.49808808  0.75682683     0.18400
H2065       H  0.07149409  0.95743865  0.88825289     0.18400
F2066       F  0.01729902  0.94706878  0.86355447    -0.19300
C2067       C  0.92275105  0.87340935  0.74700418    -0.20800
C2068       C  0.89984357  0.88239853  0.72150017    -0.08800
C2069       C  0.90407331  0.91077395  0.69672776     0.30100
C2070       C  0.92917991  0.93231717  0.70125334    -0.20800
C2071       C  0.95057890  0.92529370  0.72981361    -0.08800
C2072       C  0.94822575  0.89430830  0.75067302     0.30100
F2073       F  0.96820008  0.88695609  0.77885384    -0.19300
H2074       H  0.92020711  0.85102799  0.76555668     0.18400
H2075       H  0.93025268  0.95643708  0.68546683     0.18400
F2076       F  0.88256206  0.91967884  0.67117025    -0.19300
C2077       C  0.02778812  0.65812275  0.95611566    -0.20800
C2078       C  0.01153716  0.65586278  0.92147405    -0.08800
C2079       C  0.01933939  0.63078498  0.89392567     0.30100
C2080       C  0.04612459  0.61308942  0.89761312    -0.20800
C2081       C  0.06470729  0.61907716  0.92962676    -0.08800
C2082       C  0.05417914  0.63954675  0.96044934     0.30100
F2083       F  0.07088465  0.64460951  0.99272498    -0.19300
H2084       H  0.02226892  0.67760654  0.97747515     0.18400
H2085       H  0.05321378  0.59625251  0.87426179     0.18400
F2086       F  0.00409906  0.62813399  0.86009389    -0.19300
C2087       C  0.91783016  0.75080038  0.86688089    -0.20800
C2088       C  0.93434208  0.72239948  0.85462191    -0.08800
C2089       C  0.92223533  0.70005633  0.82649403     0.30100
C2090       C  0.89505914  0.70793211  0.80844580    -0.20800
C2091       C  0.87947324  0.73795340  0.81866108    -0.08800
C2092       C  0.89048147  0.75827715  0.84970447     0.30100
F2093       F  0.87575801  0.78671663  0.86207036    -0.19300
H2094       H  0.92663232  0.76791814  0.88901666     0.18400
H2095       H  0.88732539  0.69184439  0.78476748     0.18400
F2096       F  0.93773268  0.67206967  0.81452652    -0.19300
C2097       C  0.09530019  0.75030816  0.83478405    -0.20800
C2098       C  0.09050020  0.76363222  0.79764035    -0.08800
C2099       C  0.06174541  0.77628816  0.78888024     0.30100
C2100       C  0.03770185  0.77096285  0.81454411    -0.20800
C2101       C  0.04178695  0.75342947  0.84958525    -0.08800
C2102       C  0.07139135  0.74566725  0.86077155     0.30100
F2103       F  0.07710571  0.73076929  0.89551452    -0.19300
H2104       H  0.11720304  0.74123972  0.84285197     0.18400
H2105       H  0.01548573  0.77799926  0.80537259     0.18400
F2106       F  0.05599976  0.79097044  0.75404500    -0.19300
C2107       C  0.90722956  0.77641132  0.55804808    -0.20800
C2108       C  0.93547387  0.77965223  0.57577245    -0.08800
C2109       C  0.93795806  0.77058255  0.61512375     0.30100
C2110       C  0.91210276  0.76292010  0.63704449    -0.20800
C2111       C  0.88355746  0.76475028  0.62020601    -0.08800
C2112       C  0.88148372  0.76967560  0.58006453     0.30100
F2113       F  0.85437930  0.77067065  0.56263891    -0.19300
H2114       H  0.90460263  0.78232690  0.52755572     0.18400
H2115       H  0.91421979  0.75909691  0.66803443     0.18400
F2116       F  0.96466834  0.77280004  0.63344320    -0.19300
C2117       C  0.08870346  0.79877183  0.55886577    -0.20800
C2118       C  0.09641025  0.81369444  0.59465601    -0.08800
C2119       C  0.07635819  0.83687734  0.61213133     0.30100
C2120       C  0.04811786  0.84237224  0.59598332    -0.20800
C2121       C  0.03949034  0.82490340  0.56216096    -0.08800
C2122       C  0.06043272  0.80427011  0.54271094     0.30100
F2123       F  0.05255616  0.78700056  0.50998992    -0.19300
H2124       H  0.10325331  0.77990463  0.54558027     0.18400
H2125       H  0.03221033  0.85834221  0.61137158     0.18400
F2126       F  0.08272552  0.85096952  0.64724181    -0.19300
C2127       C  0.90782199  0.02644133  0.88068830    -0.20800
C2128       C  0.87899942  0.02076722  0.86568267    -0.08800
C2129       C  0.87555307  0.01630371  0.82568030     0.30100
C2130       C  0.90073348  0.01425197  0.80163623    -0.20800
C2131       C  0.92983756  0.01486274  0.81731846    -0.08800
C2132       C  0.93317300  0.02320108  0.85683555     0.30100
F2133       F  0.96061204  0.02462824  0.87336605    -0.19300
H2134       H  0.91087582  0.03001540  0.91157441     0.18400
H2135       H  0.89729532  0.00880200  0.77116631     0.18400
F2136       F  0.84795617  0.01161124  0.81023553    -0.19300
C2137       C  0.92483054  0.92497995  0.50259796    -0.20800
C2138       C  0.90270910  0.91259734  0.47722668    -0.08800
C2139       C  0.90829700  0.88311689  0.45488499     0.30100
C2140       C  0.93388756  0.86380686  0.46183062    -0.20800
C2141       C  0.95424430  0.87391371  0.49074657    -0.08800
C2142       C  0.95074799  0.90603895  0.50891595     0.30100
F2143       F  0.97003358  0.91658824  0.53688513    -0.19300
H2144       H  0.92119323  0.94830139  0.51923482     0.18400
H2145       H  0.93596467  0.83884663  0.44798604     0.18400
F2146       F  0.88872058  0.87176233  0.92760608    -0.19300
C2147       C  0.09498497  0.50428933  0.56717904    -0.20800
C2148       C  0.09093156  0.50818019  0.03308264    -0.08800
C2149       C  0.06205510  0.50824551  0.01691891     0.30100
C2150       C  0.03804109  0.51008566  0.53460846    -0.20800
C2151       C  0.04116724  0.51151376  0.57507022    -0.08800
C2152       C  0.06966806  0.50555843  0.59110623     0.30100
F2153       F  0.07350801  0.50447716  0.63013090    -0.19300
H2154       H  0.11695359  0.50322996  0.58015228     0.18400
H2155       H  0.01511124  0.51424915  0.02790943     0.18400
F2156       F  0.05848313  0.51067886  0.97792082    -0.19300
C2157       C  0.07605130  0.61354057  0.69002212    -0.20800
C2158       C  0.07069903  0.64747842  0.67862933    -0.08800
C2159       C  0.04148752  0.65696097  0.66844812     0.30100
C2160       C  0.01914624  0.63168410  0.66433774    -0.20800
C2161       C  0.02571307  0.59689347  0.67071729    -0.08800
C2162       C  0.05351865  0.58853862  0.68710891     0.30100
F2163       F  0.06009875  0.55536889  0.69575677    -0.19300
H2164       H  0.09808496  0.60606653  0.69953313     0.18400
H2165       H  0.99796141  0.63888810  0.65186395     0.18400
F2166       F  0.03535576  0.68993185  0.65846318    -0.19300
C2167       C  0.93529957  0.56748464  0.55230170    -0.20800
C2168       C  0.93992472  0.55927444  0.59138354    -0.08800
C2169       C  0.91508049  0.55199303  0.61534543     0.30100
C2170       C  0.88638908  0.54937313  0.59928533    -0.20800
C2171       C  0.88198775  0.55512311  0.55942496    -0.08800
C2172       C  0.90655971  0.56604318  0.53651893     0.30100
F2173       F  0.90350320  0.57100586  0.49776434    -0.19300
H2174       H  0.95421565  0.57335815  0.53349198     0.18400
H2175       H  0.86797598  0.54032742  0.61734164     0.18400
F2176       F  0.91891862  0.54413667  0.65333622    -0.19300
loop_ 
_geom_bond_atom_site_label_1 
_geom_bond_atom_site_label_2 
_geom_bond_distance 
_geom_bond_site_symmetry_2 
_ccdc_geom_bond_type 
C1            N2   1.364       .  A
C1            N6   1.367       .  A
C1          C536   1.480       .  S
N2            C3   1.362   1_655  A
C3            N4   1.349       .  A
C3          C529   1.474       .  S
N4            C5   1.347       .  A
C5            N6   1.361   1_455  A
C5          C519   1.485       .  S
Zn7          O11   1.917   1_554  S
Zn7          O12   1.979       .  S
Zn7          O16   2.005       .  S
Zn7          O23   2.006       .  S
Zn8        O1643   1.955   1_545  S
Zn8          O19   2.034       .  S
Zn8        O1101   1.997       .  S
Zn8         O559   2.045       .  S
Zn9         O555   1.954       .  S
Zn9          O17   2.026       .  S
Zn9          O20   2.033       .  S
Zn9         O558   2.014       .  S
Zn10         O11   1.944       .  S
Zn10         O18   2.103       .  S
Zn10         O22   2.132   1_556  S
Zn10       O1109   2.121       .  S
O11       Zn1640   1.953       .  S
O11        Zn553   1.947       .  S
O12        C1112   1.269       .  A
O13       Zn1096   2.011       .  S
O13          C25   1.270       .  A
O14        Zn553   2.022       .  S
O14          C26   1.272       .  A
O15        Zn552   2.041   1_554  S
O15          C24   1.276       .  A
O16          C26   1.274   1_554  A
O17          C25   1.275       .  A
O18         C571   1.284       .  A
O19          C28   1.279       .  A
O20          C27   1.278       .  A
O21       Zn1098   2.131   1_545  S
O21         C572   1.292       .  A
O22          C29   1.290       .  A
O23          C29   1.276       .  A
C24         C539   1.475       .  S
C24        O1100   1.269       .  A
C25         C496   1.474       .  S
C26         C506   1.474       .  S
C27          C30   1.506       .  S
C27         O562   1.284       .  A
C28         C184   1.498       .  S
C28         O565   1.291       .  A
C29         C110   1.500       .  S
C30          C31   1.410       .  A
C30          C35   1.417       .  A
C31          C32   1.410       .  A
C31          H36   1.084       .  S
C32         C105   1.501       .  S
C32          C33   1.411       .  A
C33          C34   1.419       .  A
C33          H37   1.084       .  S
C34         C176   1.499       .  S
C34          C35   1.420       .  A
C35          H38   1.083       .  S
C39          N40   1.370   1_455  A
C39          N44   1.367   1_455  A
C39         C489   1.482       .  S
N40          C41   1.362       .  A
C41          N42   1.346       .  A
C41         C476   1.486       .  S
N42          C43   1.346       .  A
C43          N44   1.362       .  A
C43         C509   1.464   1_554  S
Zn45         O49   1.906       .  S
Zn45         O50   1.975       .  S
Zn45         O54   1.930       .  S
Zn45         O61   1.965       .  S
Zn46         O49   1.935       .  S
Zn46         O51   2.016       .  S
Zn46         O53   2.047       .  S
Zn46         O57   2.026       .  S
Zn47         O49   1.972       .  S
Zn47         O52   2.113       .  S
Zn47         O55   2.085       .  S
Zn47         O58   2.127       .  S
Zn48         O49   1.929       .  S
Zn48         O56   2.015       .  S
Zn48         O59   2.065       .  S
Zn48         O60   2.074       .  S
O50          C62   1.267       .  A
O51          C63   1.278       .  A
O52          C64   1.282       .  A
O53          C62   1.278       .  A
O54          C64   1.262       .  A
O55          C63   1.286       .  A
O56          C65   1.279       .  A
O57          C66   1.273       .  A
O58          C65   1.291       .  A
O59          C66   1.282       .  A
O60          C67   1.280       .  A
O61          C67   1.265       .  A
C62         C526   1.468       .  S
C63         C148   1.499       .  S
C64         C486   1.476       .  S
C65         C224   1.506       .  S
C66          C72   1.490       .  S
C67         C466   1.486       .  S
C68         C139   1.489       .  S
C68          C69   1.404       .  A
C68          C73   1.402       .  A
C69          C70   1.422       .  A
C69          H74   1.083       .  S
C70         C215   1.506       .  S
C70          C71   1.416       .  A
C71          C72   1.418       .  A
C71          H75   1.083       .  S
C72          C73   1.403       .  A
C73          H76   1.084       .  S
C77          N78   1.367       .  A
C77          N82   1.363       .  A
C77         C456   1.475       .  S
N78          C79   1.363   1_655  A
C79          N80   1.346       .  A
C79         C469   1.489       .  S
N80          C81   1.348       .  A
C81          N82   1.359   1_455  A
C81         C446   1.459       .  S
Zn83         O87   1.956       .  S
Zn83         O88   2.127       .  S
Zn83         O92   2.116       .  S
Zn83         O99   2.135       .  S
Zn84         O87   1.962       .  S
Zn84         O89   2.021       .  S
Zn84         O91   2.063       .  S
Zn84         O95   2.068       .  S
Zn85         O87   1.949       .  S
Zn85         O90   2.023       .  S
Zn85         O93   2.021       .  S
Zn85         O96   2.008       .  S
Zn86         O87   1.922       .  S
Zn86         O94   2.006       .  S
Zn86         O97   1.983       .  S
Zn86         O98   2.010       .  S
O88         C100   1.292       .  A
O89         C101   1.271       .  A
O90         C102   1.277       .  A
O91         C100   1.283       .  A
O92         C102   1.284       .  A
O93         C101   1.275       .  A
O94         C103   1.274       .  A
O95         C104   1.280       .  A
O96         C103   1.270       .  A
O97         C104   1.269       .  A
O98         C105   1.276       .  A
O99         C105   1.290       .  A
C100        C298   1.505       .  S
C101        C479   1.477       .  S
C102        C106   1.505       .  S
C103        C436   1.475       .  S
C104        C459   1.491       .  S
C106        C107   1.416       .  A
C106        C111   1.410       .  A
C107        C108   1.420       .  A
C107        H112   1.083       .  S
C108        C295   1.499       .  S
C108        C109   1.418       .  A
C109        C110   1.412       .  A
C109        H113   1.084       .  S
C110        C111   1.409       .  A
C111        H114   1.084       .  S
C115        N116   1.367   1_455  A
C115        N120   1.362   1_455  A
C115        C426   1.473       .  S
N116        C117   1.363       .  A
C117        N118   1.349       .  A
C117        C499   1.487       .  S
N118        C119   1.347       .  A
C119        N120   1.359       .  A
C119        C439   1.462       .  S
Zn121       O125   1.937       .  S
Zn121       O130   2.060   1_545  S
Zn121       O137   2.003   1_545  S
Zn121      O1214   2.055   1_545  S
Zn122       O125   1.936       .  S
Zn122       O127   2.093       .  S
Zn122       O129   2.088       .  S
Zn122       O133   2.086       .  S
Zn123       O125   1.906       .  S
Zn123       O128   1.981       .  S
Zn123       O131   2.002       .  S
Zn123       O134   1.994       .  S
Zn124       O125   1.932       .  S
Zn124       O132   2.004       .  S
Zn124       O135   2.027       .  S
Zn124       O136   2.029       .  S
O126      Zn1209   2.056       .  S
O126        C138   1.283       .  A
O127        C139   1.285       .  A
O128        C140   1.268       .  A
O129       C1226   1.286   1_545  A
O130        C140   1.280   1_565  A
O131        C139   1.275       .  A
O132        C141   1.270       .  A
O133        C142   1.281       .  A
O134        C141   1.274       .  A
O135        C142   1.279       .  A
O136        C143   1.277       .  A
O137        C143   1.269   1_565  A
C138        C262   1.495       .  S
C138       O1217   1.287       .  A
C140        C429   1.481   1_545  S
C141        C449   1.471       .  S
C142        C144   1.499       .  S
C143        C516   1.475       .  S
C144        C145   1.421       .  A
C144        C149   1.407       .  A
C145        C146   1.421       .  A
C145        H150   1.083       .  S
C146        C252   1.506       .  S
C146        C147   1.419       .  A
C147        C692   1.403       .  A
C147        H695   1.083       .  S
C148        C691   1.403       .  A
C148        C693   1.405       .  A
C149        C692   1.404       .  A
C149        H696   1.083       .  S
H151        C691   1.083       .  S
H152        C693   1.083       .  S
C153        N154   1.367       .  A
C153        N158   1.365       .  A
C153        C416   1.477       .  S
N154        C155   1.364       .  A
C155        N156   1.348       .  A
C155        C406   1.476       .  S
N156        C157   1.345       .  A
C157        N158   1.361       .  A
C157        C396   1.482       .  S
Zn159       O163   1.955       .  S
Zn159       O164   2.114       .  S
Zn159       O168   2.123       .  S
Zn159       O175   2.138   1_556  S
Zn160       O707   1.958       .  S
Zn160       O165   2.024       .  S
Zn160       O167   2.060       .  S
Zn160       O715   2.058       .  S
Zn161       O707   1.957       .  S
Zn161       O166   2.013       .  S
Zn161       O169   2.024       .  S
Zn161       O716   2.002       .  S
Zn162       O163   1.928   1_554  S
Zn162       O170   2.006       .  S
Zn162       O173   1.999       .  S
Zn162       O174   2.023       .  S
O163       Zn704   1.955       .  S
O163       Zn705   1.955       .  S
O164        C720   1.291       .  A
O165        C177   1.271       .  A
O166        C178   1.275       .  A
O167        C176   1.282       .  A
O168        C722   1.285       .  A
O169        C177   1.274       .  A
O170        C179   1.274   1_554  A
O171       Zn704   2.053   1_554  S
O171        C180   1.278       .  A
O172       Zn705   1.987       .  S
O172        C179   1.269       .  A
O173        C180   1.271       .  A
O174        C181   1.277       .  A
O175        C181   1.290       .  A
C176        O708   1.290       .  A
C177        C376   1.475       .  S
C178        C186   1.502       .  S
C178        O712   1.285       .  A
C179        C386   1.466       .  S
C180        C419   1.487       .  S
C181        C296   1.505       .  S
C182        C293   1.502       .  S
C182        C183   1.414       .  A
C182        C187   1.410       .  A
C183        C184   1.420       .  A
C183        H188   1.083       .  S
C184        C185   1.416       .  A
C185        C186   1.412       .  A
C185        H189   1.083       .  S
C186        C187   1.411       .  A
C187        H190   1.084       .  S
C191        N192   1.360       .  A
C191        N196   1.371       .  A
C191        C366   1.477       .  S
N192        C193   1.356       .  A
C193        N194   1.347       .  A
C193        C389   1.457   1_554  S
N194        C195   1.348       .  A
C195        N196   1.365       .  A
C195        C359   1.488       .  S
Zn197       O201   1.892       .  S
Zn197       O202   1.953       .  S
Zn197       O206   1.915       .  S
Zn197       O213   1.971       .  S
Zn198       O201   1.919       .  S
Zn198       O205   2.069       .  S
Zn198       O209   2.085       .  S
Zn198      O1291   2.015       .  S
Zn199      O1289   1.961   1_545  S
Zn199       O204   2.114       .  S
Zn199       O207   2.133       .  S
Zn199      O1298   2.087   1_545  S
Zn200       O201   1.915       .  S
Zn200       O208   2.018       .  S
Zn200       O211   2.019       .  S
Zn200       O212   2.056       .  S
O201      Zn1287   1.961       .  S
O202        C214   1.264       .  A
O203      Zn1286   2.008   1_545  S
O203        C215   1.279       .  A
O204        C216   1.283       .  A
O205        C214   1.281       .  A
O206       C1304   1.261       .  A
O207        C215   1.293       .  A
O208        C217   1.280       .  A
O209        C218   1.285       .  A
O210      Zn1287   2.087       .  S
O210        C217   1.287       .  A
O211        C218   1.273       .  A
O212        C219   1.280       .  A
O213        C219   1.266       .  A
C214        C349   1.475       .  S
C216        C369   1.471       .  S
C216       O1294   1.260       .  A
C217        C260   1.499       .  S
C218        C222   1.493       .  S
C219        C409   1.469       .  S
C220        C253   1.497       .  S
C220        C221   1.407       .  A
C220        C225   1.406       .  A
C221        C222   1.405       .  A
C221        H226   1.083       .  S
C222        C223   1.420       .  A
C223        C224   1.416       .  A
C223        H227   1.083       .  S
C224        C225   1.417       .  A
C225        H228   1.083       .  S
C229        N230   1.365       .  A
C229        N234   1.367       .  A
C229        C336   1.479       .  S
N230        C231   1.362       .  A
C231        N232   1.349       .  A
C231        C326   1.463       .  S
N232        C233   1.348       .  A
C233        N234   1.361       .  A
C233        C379   1.481       .  S
Zn235       O239   1.921       .  S
Zn235       O240   2.013       .  S
Zn235       O244   2.097       .  S
Zn235       O251   2.073       .  S
Zn236       O239   1.955       .  S
Zn236       O241   2.082       .  S
Zn236       O243   2.127       .  S
Zn236       O247   2.117       .  S
Zn237       O239   1.914       .  S
Zn237       O242   2.011       .  S
Zn237       O245   2.020       .  S
Zn237       O248   2.049       .  S
Zn238       O239   1.885       .  S
Zn238       O246   1.967       .  S
Zn238       O249   1.938       .  S
Zn238       O250   1.954       .  S
O240        C252   1.280       .  A
O241        C253   1.287       .  A
O242        C254   1.272       .  A
O243        C252   1.291       .  A
O244        C254   1.285       .  A
O245        C253   1.280       .  A
O246        C255   1.266       .  A
O247        C256   1.283       .  A
O248        C255   1.279       .  A
O249        C256   1.264       .  A
O250        C257   1.265       .  A
O251        C257   1.282       .  A
C254        C258   1.496       .  S
C255        C316   1.471       .  S
C256        C339   1.477       .  S
C257        C399   1.478       .  S
C258        C259   1.404       .  A
C258        C263   1.413       .  A
C259        C804   1.414       .  A
C259        H808   1.083       .  S
C260        C803   1.412       .  A
C260        C805   1.413       .  A
C261        C262   1.416       .  A
C261        C804   1.415       .  A
C261        H809   1.083       .  S
C262        C263   1.411       .  A
C263        H266   1.084       .  S
H264        C803   1.083       .  S
H265        C805   1.083       .  S
C267        N268   1.366       .  A
C267        N272   1.364       .  A
C267        C306   1.476       .  S
N268        C269   1.361       .  A
C269        N270   1.346       .  A
C269        C346   1.487       .  S
N270        C271   1.348       .  A
C271        N272   1.362       .  A
C271        C319   1.478       .  S
Zn273       O277   1.962   1_565  S
Zn273       O278   2.023       .  S
Zn273       O282   2.055       .  S
Zn273      O1377   2.045       .  S
Zn274       O277   1.956       .  S
Zn274       O279   2.014       .  S
Zn274       O281   2.035       .  S
Zn274       O285   2.028       .  S
Zn275       O277   1.923       .  S
Zn275       O280   1.979       .  S
Zn275       O283   2.002       .  S
Zn275       O286   2.013       .  S
Zn276       O277   1.956       .  S
Zn276       O284   2.134       .  S
Zn276       O287   2.118       .  S
Zn276       O288   2.113       .  S
O278        C290   1.272   1_565  A
O279        C291   1.271       .  A
O280        C292   1.269   1_545  A
O281        C290   1.276       .  A
O282        C292   1.278       .  A
O283        C291   1.273       .  A
O284        C293   1.289       .  A
O285        C294   1.278       .  A
O286        C293   1.275       .  A
O287        C294   1.285       .  A
O288       C1383   1.291   1_545  A
O289      Zn1361   2.047       .  S
O289        C295   1.281       .  A
C290        C356   1.480       .  S
C291        C329   1.474       .  S
C292        C309   1.482       .  S
C294        C300   1.507       .  S
C295       O1376   1.292       .  A
C296        C297   1.415       .  A
C296        C301   1.409       .  A
C297        C298   1.422       .  A
C297        H302   1.083       .  S
C298        C299   1.420       .  A
C299        C300   1.417       .  A
C299        H303   1.083       .  S
C300        C301   1.411       .  A
C301        H304   1.084       .  S
C305        C306   1.403       .  A
C305        C310   1.400       .  A
C305        H312   1.084       .  S
C306       C1395   1.404       .  A
C307        C308   1.399       .  A
C307       C1394   1.401       .  A
C307        F314   1.357   1_565  S
C308        C309   1.409       .  A
C308        H313   1.083   1_565  S
C309       C1398   1.409       .  A
C310       C1397   1.408       .  A
C310        F311   1.358       .  S
C315        C316   1.398       .  A
C315        C320   1.394       .  A
C315        H322   1.084       .  S
C316        C317   1.408       .  A
C317        C318   1.399       .  A
C317        F324   1.357       .  S
C318        C319   1.404       .  A
C318        H323   1.083       .  S
C319        C320   1.413       .  A
C320        F321   1.358       .  S
C325        C326   1.401       .  A
C325        C330   1.396       .  A
C325        H332   1.084       .  S
C326        C327   1.407       .  A
C327        C328   1.399       .  A
C327        F334   1.357       .  S
C328        C329   1.403       .  A
C328        H333   1.084       .  S
C329        C330   1.407       .  A
C330        F331   1.358       .  S
C335        C336   1.406       .  A
C335        C340   1.408       .  A
C335        H342   1.083       .  S
C336        C337   1.402       .  A
C337        C338   1.397       .  A
C337        F344   1.358       .  S
C338        C339   1.406       .  A
C338        H343   1.084       .  S
C339        C340   1.408       .  A
C340        F341   1.357       .  S
C345        C346   1.414       .  A
C345        C350   1.394       .  A
C345        H352   1.083       .  S
C346        C347   1.405       .  A
C347        C348   1.399       .  A
C347        F354   1.357       .  S
C348        C349   1.410       .  A
C348        H353   1.084       .  S
C349        C350   1.398       .  A
C350        F351   1.358       .  S
C355        C356   1.399       .  A
C355        C360   1.399       .  A
C355        H362   1.083       .  S
C356        C357   1.410       .  A
C357        C358   1.404       .  A
C357        F364   1.358   1_545  S
C358        C359   1.404       .  A
C358        H363   1.083       .  S
C359        C360   1.415       .  A
C360        F361   1.358       .  S
C365        C366   1.397       .  A
C365        C370   1.395       .  A
C365        H372   1.084   1_545  S
C366        C367   1.410       .  A
C367        C368   1.406       .  A
C367        F374   1.357       .  S
C368        C369   1.403       .  A
C368       H1461   1.084       .  S
C369        C370   1.410       .  A
C370        F371   1.358   1_545  S
H373       C1456   1.081       .  S
C375        C376   1.400       .  A
C375        C380   1.399       .  A
C375        H382   1.083       .  S
C376        C377   1.409       .  A
C377        C378   1.401       .  A
C377        F384   1.358       .  S
C378        C379   1.404       .  A
C378        H383   1.083       .  S
C379        C380   1.411       .  A
C380        F381   1.358       .  S
C385        C386   1.402   1_554  A
C385        C390   1.393       .  A
C385        H392   1.084       .  S
C386        C387   1.405       .  A
C387        C388   1.396       .  A
C387        F394   1.358       .  S
C388        C389   1.403       .  A
C388        H393   1.083       .  S
C389        C390   1.403   1_556  A
C390        F391   1.358       .  S
C395        C396   1.400       .  A
C395        C944   1.397       .  A
C395        H946   1.083       .  S
C396        C397   1.415       .  A
C397        C398   1.398       .  A
C397        F404   1.358       .  S
C398        C943   1.398       .  A
C398        H403   1.083       .  S
C399        C400   1.414       .  A
C399        C942   1.398       .  A
C400        C939   1.397       .  A
C400        F401   1.358       .  S
H402        C939   1.083       .  S
C405        C406   1.410       .  A
C405        C410   1.395       .  A
C405        H412   1.084       .  S
C406        C407   1.406       .  A
C407        C408   1.402       .  A
C407        F414   1.357       .  S
C408        C409   1.406       .  A
C408        H413   1.084       .  S
C409        C410   1.399       .  A
C410        F411   1.358       .  S
C415        C416   1.403       .  A
C415        C420   1.403       .  A
C415        H422   1.083       .  S
C416        C417   1.403       .  A
C417        C418   1.403       .  A
C417        F424   1.357       .  S
C418        C419   1.409       .  A
C418        H423   1.083       .  S
C419        C420   1.409       .  A
C420        F421   1.357       .  S
C425        C430   1.402       .  A
C425       C1514   1.402       .  A
C425        H432   1.083   1_565  S
C426        C427   1.404       .  A
C426       C1513   1.401       .  A
C427        C428   1.402       .  A
C427        F434   1.357       .  S
C428       C1517   1.406       .  A
C428        H433   1.083       .  S
C429        C430   1.410       .  A
C429       C1516   1.407       .  A
C430        F431   1.358   1_565  S
C435        C436   1.404       .  A
C435        C440   1.394       .  A
C435        H442   1.084       .  S
C436        C437   1.406       .  A
C437        C438   1.400       .  A
C437        F444   1.357       .  S
C438        C439   1.404       .  A
C438        H443   1.083       .  S
C439        C440   1.404       .  A
C440        F441   1.358       .  S
C445        C446   1.405       .  A
C445        C450   1.400       .  A
C445        H452   1.083       .  S
C446        C447   1.403       .  A
C447        C448   1.393       .  A
C447        F454   1.358       .  S
C448        C449   1.403       .  A
C448        H453   1.084       .  S
C449        C450   1.405       .  A
C450        F451   1.357       .  S
C455        C456   1.398       .  A
C455        C460   1.399       .  A
C455        H462   1.084       .  S
C456        C457   1.406       .  A
C457        C458   1.406       .  A
C457        F464   1.357       .  S
C458        C459   1.408       .  A
C458        H463   1.083       .  S
C459        C460   1.414       .  A
C460        F461   1.358       .  S
C465        C466   1.400       .  A
C465        C470   1.398       .  A
C465        H472   1.083       .  S
C466        C467   1.416       .  A
C467        C468   1.398       .  A
C467        F474   1.357       .  S
C468        C469   1.401       .  A
C468        H473   1.083       .  S
C469        C470   1.417       .  A
C470        F471   1.358       .  S
C475        C476   1.411       .  A
C475        C480   1.395       .  A
C475        H482   1.084       .  S
C476        C477   1.407       .  A
C477        C478   1.404       .  A
C477        F484   1.357       .  S
C478        C479   1.409       .  A
C478        H483   1.084       .  S
C479        C480   1.400       .  A
C480        F481   1.358       .  S
C485        C486   1.405       .  A
C485        C490   1.396       .  A
C485        H492   1.084       .  S
C486        C487   1.407       .  A
C487        C488   1.410       .  A
C487        F494   1.357       .  S
C488        C489   1.408       .  A
C488        H493   1.083       .  S
C489        C490   1.402       .  A
C490        F491   1.358       .  S
C495        C496   1.407       .  A
C495        C500   1.402       .  A
C495        H502   1.083       .  S
C496        C497   1.399       .  A
C497        C498   1.396       .  A
C497        F504   1.357       .  S
C498        C499   1.413       .  A
C498        H503   1.083       .  S
C499        C500   1.408       .  A
C500        F501   1.357       .  S
C505        C506   1.405   1_554  A
C505        C510   1.397       .  A
C505        H512   1.084       .  S
C506        C507   1.404       .  A
C507        C508   1.401       .  A
C507       F1058   1.357       .  S
C508        C509   1.407       .  A
C508        H513   1.084       .  S
C509        C510   1.403   1_556  A
C510        F511   1.358       .  S
F514       C1051   1.357       .  S
C515        C520   1.397       .  A
C515       C1060   1.398       .  A
C515        H522   1.084       .  S
C516        C517   1.411       .  A
C516       C1059   1.396       .  A
C517       C1062   1.401       .  A
C517        F524   1.358       .  S
C518        C519   1.404       .  A
C518       C1061   1.400   1_545  A
C518       H1067   1.083       .  S
C519        C520   1.415       .  A
C520        F521   1.358       .  S
H523       C1062   1.083       .  S
C525        C526   1.398       .  A
C525        C530   1.396       .  A
C525        H532   1.084       .  S
C526        C527   1.406       .  A
C527        C528   1.399       .  A
C527        F534   1.358       .  S
C528        C529   1.404       .  A
C528        H533   1.083       .  S
C529        C530   1.411       .  A
C530        F531   1.358       .  S
C535        C536   1.402       .  A
C535        C540   1.398       .  A
C535        H542   1.084       .  S
C536        C537   1.407       .  A
C537        C538   1.406       .  A
C537        F544   1.357       .  S
C538        C539   1.406       .  A
C538        H543   1.083       .  S
C539        C540   1.407       .  A
C540        F541   1.358   1_554  S
C545        N546   1.364       .  A
C545        N550   1.369       .  A
C545       C1080   1.480       .  S
N546        C547   1.360   1_655  A
C547        N548   1.346       .  A
C547       C1073   1.469       .  S
N548        C549   1.346       .  A
C549        N550   1.364   1_455  A
C549       C1063   1.486       .  S
Zn551       O555   1.931       .  S
Zn551       O556   1.992       .  S
Zn551       O560   2.003       .  S
Zn551       O567   2.009       .  S
Zn552      O1099   1.953   1_545  S
Zn552      O1645   2.007       .  S
Zn552       O563   2.036       .  S
Zn553       O561   2.031       .  S
Zn553       O564   2.036       .  S
Zn554       O555   1.959       .  S
Zn554       O562   2.116       .  S
Zn554      O1653   2.120       .  S
Zn554       O566   2.128       .  S
O555      Zn1096   1.958       .  S
O556       C1656   1.269       .  A
O557      Zn1640   2.002       .  S
O557        C569   1.270       .  A
O558        C570   1.272       .  A
O559        C568   1.276       .  A
O560        C570   1.273       .  A
O561        C569   1.277       .  A
O563        C572   1.279       .  A
O564        C571   1.279       .  A
O565      Zn1642   2.125   1_545  S
O566        C573   1.289       .  A
O567        C573   1.275       .  A
C568       C1083   1.477       .  S
C568       O1644   1.268       .  A
C569       C1040   1.471       .  S
C570       C1050   1.478       .  S
C571        C574   1.504       .  S
C572        C728   1.499       .  S
C573        C654   1.497       .  S
C574        C575   1.411       .  A
C574        C579   1.414       .  A
C575        C576   1.411       .  A
C575        H580   1.084       .  S
C576        C649   1.498       .  S
C576        C577   1.411       .  A
C577        C578   1.417       .  A
C577        H581   1.084       .  S
C578        C720   1.495       .  S
C578        C579   1.417       .  A
C579        H582   1.083       .  S
C583        N584   1.371   1_455  A
C583        N588   1.365       .  A
C583       C1033   1.478       .  S
N584        C585   1.363       .  A
C585        N586   1.347       .  A
C585       C1020   1.485       .  S
N586        C587   1.346       .  A
C587        N588   1.359   1_655  A
C587       C1053   1.460       .  S
Zn589       O593   1.910       .  S
Zn589       O594   1.965       .  S
Zn589       O598   1.926       .  S
Zn589       O605   1.966       .  S
Zn590       O593   1.940       .  S
Zn590       O595   2.015       .  S
Zn590       O597   2.049       .  S
Zn590       O601   2.028       .  S
Zn591       O593   1.975       .  S
Zn591       O596   2.108       .  S
Zn591       O599   2.085       .  S
Zn591       O602   2.123       .  S
Zn592       O593   1.930       .  S
Zn592       O600   2.014       .  S
Zn592       O603   2.054       .  S
Zn592       O604   2.057       .  S
O594        C606   1.265       .  A
O595        C607   1.279       .  A
O596        C608   1.281       .  A
O597        C606   1.277       .  A
O598        C608   1.261       .  A
O599        C607   1.286       .  A
O600        C609   1.279       .  A
O601        C610   1.273       .  A
O602        C609   1.291       .  A
O603        C610   1.280       .  A
O604        C611   1.278       .  A
O605        C611   1.265       .  A
C606       C1070   1.466       .  S
C607        C692   1.498       .  S
C608       C1030   1.472       .  S
C609        C768   1.505       .  S
C610        C616   1.488       .  S
C611       C1010   1.484       .  S
C612        C683   1.492       .  S
C612        C613   1.407       .  A
C612        C617   1.403       .  A
C613        C614   1.422       .  A
C613        H618   1.083       .  S
C614        C759   1.505       .  S
C614        C615   1.414       .  A
C615        C616   1.415       .  A
C615        H619   1.083       .  S
C616        C617   1.404       .  A
C617        H620   1.084       .  S
C621        N622   1.367       .  A
C621        N626   1.365       .  A
C621       C1000   1.482       .  S
N622        C623   1.362   1_655  A
C623        N624   1.345       .  A
C623       C1013   1.489       .  S
N624        C625   1.347       .  A
C625        N626   1.362   1_455  A
C625        C990   1.463       .  S
Zn627       O631   1.969       .  S
Zn627       O632   2.136       .  S
Zn627       O636   2.119       .  S
Zn627       O643   2.134       .  S
Zn628       O631   1.964       .  S
Zn628       O633   2.019       .  S
Zn628       O635   2.057       .  S
Zn628       O639   2.044       .  S
Zn629       O631   1.960       .  S
Zn629       O634   2.015       .  S
Zn629       O637   2.021       .  S
Zn629       O640   2.009       .  S
Zn630       O631   1.941       .  S
Zn630       O638   2.014       .  S
Zn630       O641   2.003       .  S
Zn630       O642   2.006       .  S
O632        C644   1.292       .  A
O633        C645   1.270       .  A
O634        C646   1.275       .  A
O635        C644   1.281       .  A
O636        C646   1.285       .  A
O637        C645   1.275       .  A
O638        C647   1.273       .  A
O639        C648   1.277       .  A
O640        C647   1.270       .  A
O641        C648   1.270       .  A
O642        C649   1.275       .  A
O643        C649   1.290       .  A
C644        C842   1.506       .  S
C645       C1023   1.475       .  S
C646        C650   1.504       .  S
C647        C980   1.477       .  S
C648       C1003   1.475       .  S
C650        C651   1.415       .  A
C650        C655   1.411       .  A
C651        C652   1.419       .  A
C651        H656   1.083       .  S
C652        C839   1.497       .  S
C652        C653   1.417       .  A
C653        C654   1.410       .  A
C653        H657   1.084       .  S
C654        C655   1.409       .  A
C655        H658   1.084       .  S
C659        N660   1.366       .  A
C659        N664   1.361       .  A
C659        C970   1.474   1_655  S
N660        C661   1.362       .  A
C661        N662   1.350       .  A
C661       C1043   1.484       .  S
N662        C663   1.348       .  A
C663        N664   1.359       .  A
C663        C983   1.464       .  S
Zn665       O669   1.948       .  S
Zn665      O1758   2.058   1_545  S
Zn665       O674   2.062   1_545  S
Zn665       O681   2.008   1_545  S
Zn666       O669   1.944       .  S
Zn666       O671   2.092       .  S
Zn666       O673   2.091       .  S
Zn666       O677   2.093       .  S
Zn667       O669   1.918       .  S
Zn667       O672   1.986       .  S
Zn667       O675   2.018       .  S
Zn667       O678   2.015       .  S
Zn668       O669   1.940       .  S
Zn668       O676   2.011       .  S
Zn668       O679   2.029       .  S
Zn668       O680   2.029   1_556  S
O670      Zn1753   2.055       .  S
O670        C682   1.282       .  A
O671        C683   1.285       .  A
O672        C684   1.269   1_545  A
O673       C1770   1.286   1_545  A
O674        C684   1.279       .  A
O675        C683   1.278       .  A
O676        C685   1.271       .  A
O677        C686   1.281       .  A
O678        C685   1.275       .  A
O679        C686   1.279       .  A
O680        C687   1.277       .  A
O681        C687   1.270   1_566  A
C682        C806   1.494       .  S
C682       O1761   1.287       .  A
C684        C973   1.483       .  S
C685        C993   1.478       .  S
C686        C688   1.502       .  S
C687       C1060   1.473       .  S
C688        C689   1.421       .  A
C688        C693   1.408   1_556  A
C689        C690   1.422       .  A
C689        H694   1.083       .  S
C690        C796   1.507       .  S
C690        C691   1.418   1_556  A
C697        N698   1.366       .  A
C697        N702   1.365       .  A
C697        C960   1.475       .  S
N698        C699   1.363       .  A
C699        N700   1.347       .  A
C699        C950   1.475       .  S
N700        C701   1.344       .  A
C701        N702   1.361       .  A
C701        C940   1.483       .  S
Zn703       O707   1.952       .  S
Zn703       O708   2.112       .  S
Zn703       O712   2.114       .  S
Zn703       O719   2.131       .  S
Zn704       O709   2.028       .  S
Zn704       O711   2.046       .  S
Zn705       O710   2.009       .  S
Zn705       O713   2.022       .  S
Zn706       O707   1.928       .  S
Zn706       O714   2.004       .  S
Zn706       O717   1.988       .  S
Zn706       O718   2.017       .  S
O709        C721   1.271       .  A
O710        C722   1.274       .  A
O711        C720   1.281       .  A
O713        C721   1.273       .  A
O714        C723   1.274       .  A
O715        C724   1.279       .  A
O716        C723   1.270       .  A
O717        C724   1.270       .  A
O718        C725   1.276       .  A
O719        C725   1.288       .  A
C721        C920   1.478       .  S
C722        C730   1.504       .  S
C723        C930   1.467       .  S
C724        C963   1.485       .  S
C725        C840   1.502       .  S
C726        C837   1.504       .  S
C726        C727   1.415       .  A
C726        C731   1.410       .  A
C727        C728   1.421       .  A
C727        H732   1.083       .  S
C728        C729   1.417       .  A
C729        C730   1.413       .  A
C729        H733   1.083       .  S
C730        C731   1.412       .  A
C731        H734   1.084       .  S
C735        N736   1.360       .  A
C735        N740   1.371       .  A
C735        C910   1.476       .  S
N736        C737   1.356       .  A
C737        N738   1.347       .  A
C737        C933   1.460       .  S
N738        C739   1.349       .  A
C739        N740   1.367       .  A
C739        C903   1.490       .  S
Zn741       O745   1.894       .  S
Zn741       O746   1.954       .  S
Zn741       O750   1.917       .  S
Zn741       O757   1.962       .  S
Zn742       O745   1.926       .  S
Zn742      O1835   2.033       .  S
Zn742       O749   2.074       .  S
Zn742       O753   2.096       .  S
Zn743      O1833   1.959   1_545  S
Zn743       O748   2.112       .  S
Zn743       O751   2.126       .  S
Zn743      O1842   2.088   1_545  S
Zn744       O745   1.921       .  S
Zn744       O752   2.020       .  S
Zn744       O755   2.016       .  S
Zn744       O756   2.056       .  S
O745      Zn1831   1.966       .  S
O746        C758   1.265       .  A
O747      Zn1830   2.018   1_545  S
O747        C759   1.280       .  A
O748        C760   1.282       .  A
O749        C758   1.282       .  A
O750       C1848   1.261       .  A
O751        C759   1.293       .  A
O752        C761   1.280       .  A
O753        C762   1.286       .  A
O754      Zn1831   2.098       .  S
O754        C761   1.288       .  A
O755        C762   1.274       .  A
O756        C763   1.278       .  A
O757        C763   1.264       .  A
C758        C893   1.476       .  S
C760        C913   1.469       .  S
C760       O1838   1.260       .  A
C761        C804   1.502       .  S
C762        C766   1.496       .  S
C763        C953   1.469       .  S
C764        C797   1.499       .  S
C764        C765   1.411       .  A
C764        C769   1.406       .  A
C765        C766   1.408       .  A
C765        H770   1.083       .  S
C766        C767   1.419       .  A
C767        C768   1.414       .  A
C767        H771   1.083       .  S
C768        C769   1.416       .  A
C769        H772   1.083       .  S
C773        N774   1.365       .  A
C773        N778   1.368       .  A
C773        C880   1.478       .  S
N774        C775   1.361       .  A
C775        N776   1.348       .  A
C775        C870   1.462       .  S
N776        C777   1.347       .  A
C777        N778   1.362       .  A
C777        C923   1.483       .  S
Zn779       O783   1.926       .  S
Zn779       O784   2.020       .  S
Zn779       O788   2.098       .  S
Zn779       O795   2.083   1_556  S
Zn780       O783   1.956       .  S
Zn780       O785   2.088       .  S
Zn780       O787   2.126       .  S
Zn780       O791   2.111       .  S
Zn781       O783   1.917       .  S
Zn781       O786   2.010       .  S
Zn781       O789   2.021       .  S
Zn781       O792   2.048       .  S
Zn782       O783   1.890       .  S
Zn782       O790   1.972       .  S
Zn782       O793   1.938       .  S
Zn782       O794   1.956       .  S
O784        C796   1.281       .  A
O785        C797   1.288       .  A
O786        C798   1.272       .  A
O787        C796   1.291       .  A
O788        C798   1.286       .  A
O789        C797   1.280       .  A
O790        C799   1.267       .  A
O791        C800   1.282       .  A
O792        C799   1.279       .  A
O793        C800   1.264       .  A
O794        C801   1.264   1_556  A
O795        C801   1.282       .  A
C798        C802   1.495       .  S
C799        C860   1.472       .  S
C800        C883   1.475       .  S
C801        C943   1.478       .  S
C802        C803   1.403   1_556  A
C802        C807   1.415       .  A
C805        C806   1.414   1_554  A
C806        C807   1.412       .  A
C807        H810   1.084       .  S
C811        N812   1.366       .  A
C811        N816   1.365       .  A
C811        C850   1.473       .  S
N812        C813   1.360       .  A
C813        N814   1.346       .  A
C813        C890   1.485       .  S
N814        C815   1.348       .  A
C815        N816   1.362       .  A
C815        C863   1.476       .  S
Zn817       O821   1.958   1_565  S
Zn817       O822   2.024       .  S
Zn817       O826   2.049       .  S
Zn817      O1921   2.039       .  S
Zn818       O821   1.952       .  S
Zn818       O823   2.010       .  S
Zn818       O825   2.041       .  S
Zn818       O829   2.038       .  S
Zn819       O821   1.920       .  S
Zn819       O824   1.973       .  S
Zn819       O827   2.006       .  S
Zn819       O830   2.018       .  S
Zn820       O821   1.950       .  S
Zn820       O828   2.137       .  S
Zn820       O831   2.119       .  S
Zn820       O832   2.117       .  S
O822        C834   1.272   1_565  A
O823        C835   1.271       .  A
O824        C836   1.268   1_545  A
O825        C834   1.278       .  A
O826        C836   1.277       .  A
O827        C835   1.274       .  A
O828        C837   1.289       .  A
O829        C838   1.280       .  A
O830        C837   1.276       .  A
O831        C838   1.286       .  A
O832       C1927   1.291   1_545  A
O833      Zn1905   2.049       .  S
O833        C839   1.281       .  A
C834        C900   1.481       .  S
C835        C873   1.473       .  S
C836        C853   1.482       .  S
C838        C844   1.509       .  S
C839       O1920   1.291       .  A
C840        C841   1.414       .  A
C840        C845   1.409       .  A
C841        C842   1.420       .  A
C841        H846   1.083       .  S
C842        C843   1.422       .  A
C843        C844   1.419       .  A
C843        H847   1.083       .  S
C844        C845   1.410       .  A
C845        H848   1.084       .  S
C849        C850   1.404       .  A
C849        C854   1.403       .  A
C849        H856   1.083       .  S
C850       C1939   1.401       .  A
C851       C1938   1.400       .  A
C851        C852   1.397       .  A
C851        F858   1.358   1_565  S
C852        C853   1.409       .  A
C852        H857   1.084   1_565  S
C853       C1942   1.409       .  A
C854       C1941   1.409       .  A
C854        F855   1.357       .  S
C859        C860   1.399       .  A
C859        C864   1.394       .  A
C859        H866   1.084       .  S
C860        C861   1.409       .  A
C861        C862   1.399       .  A
C861        F868   1.358       .  S
C862        C863   1.403       .  A
C862        H867   1.083       .  S
C863        C864   1.412       .  A
C864        F865   1.358       .  S
C869        C870   1.401       .  A
C869        C874   1.396       .  A
C869        H876   1.084       .  S
C870        C871   1.407       .  A
C871        C872   1.399       .  A
C871        F878   1.357       .  S
C872        C873   1.402       .  A
C872        H877   1.084       .  S
C873        C874   1.407       .  A
C874        F875   1.358       .  S
C879        C880   1.405       .  A
C879        C884   1.407       .  A
C879        H886   1.084       .  S
C880        C881   1.402       .  A
C881        C882   1.398       .  A
C881        F888   1.358       .  S
C882        C883   1.406       .  A
C882        H887   1.084       .  S
C883        C884   1.407       .  A
C884        F885   1.357       .  S
C889        C890   1.413       .  A
C889        C894   1.395       .  A
C889        H896   1.083       .  S
C890        C891   1.405       .  A
C891        C892   1.399       .  A
C891        F898   1.357       .  S
C892        C893   1.410       .  A
C892        H897   1.084       .  S
C893        C894   1.398       .  A
C894        F895   1.357       .  S
C899        C900   1.398       .  A
C899        C904   1.399       .  A
C899        H906   1.083       .  S
C900        C901   1.411   1_545  A
C901        C902   1.405   1_565  A
C901        F908   1.358       .  S
C902        C903   1.405       .  A
C902        H907   1.083       .  S
C903        C904   1.416       .  A
C904        F905   1.358       .  S
C909        C910   1.399       .  A
C909        C914   1.400       .  A
C909        H916   1.080   1_545  S
C910        C911   1.407       .  A
C911        C912   1.405       .  A
C911        F918   1.357       .  S
C912        C913   1.405       .  A
C912       H2005   1.081       .  S
C913        C914   1.409       .  A
C914        F915   1.358   1_545  S
H917       C2000   1.083       .  S
C919        C920   1.400       .  A
C919        C924   1.399       .  A
C919        H926   1.083       .  S
C920        C921   1.410       .  A
C921        C922   1.403       .  A
C921        F928   1.358       .  S
C922        C923   1.404       .  A
C922        H927   1.083       .  S
C923        C924   1.412       .  A
C924        F925   1.358       .  S
C929        C930   1.402       .  A
C929        C934   1.393       .  A
C929        H936   1.084       .  S
C930        C931   1.404       .  A
C931        C932   1.398       .  A
C931        F938   1.358       .  S
C932        C933   1.405       .  A
C932        H937   1.084       .  S
C933        C934   1.403       .  A
C934        F935   1.358       .  S
C939        C940   1.401       .  A
C940        C941   1.416       .  A
C941        C942   1.396       .  A
C941        F948   1.358       .  S
C942        H947   1.083       .  S
C943        C944   1.414       .  A
C944        F945   1.358   1_554  S
C949        C950   1.410       .  A
C949        C954   1.394       .  A
C949        H956   1.085       .  S
C950        C951   1.406       .  A
C951        C952   1.401       .  A
C951        F958   1.357       .  S
C952        C953   1.406       .  A
C952        H957   1.084       .  S
C953        C954   1.399       .  A
C954        F955   1.358       .  S
C959        C960   1.403       .  A
C959        C964   1.403       .  A
C959        H966   1.083       .  S
C960        C961   1.402       .  A
C961        C962   1.401       .  A
C961        F968   1.358       .  S
C962        C963   1.409       .  A
C962        H967   1.083       .  S
C963        C964   1.409       .  A
C964        F965   1.357       .  S
C969       C2058   1.402       .  A
C969        C974   1.403       .  A
C969        H976   1.083       .  S
C970       C2057   1.403       .  A
C970        C971   1.403       .  A
C971        C972   1.398       .  A
C971        F978   1.358       .  S
C972       C2061   1.405       .  A
C972        H977   1.084       .  S
C973       C2060   1.406       .  A
C973        C974   1.411       .  A
C974        F975   1.358   1_565  S
C979        C980   1.403       .  A
C979        C984   1.395       .  A
C979        H986   1.084       .  S
C980        C981   1.408       .  A
C981        C982   1.400       .  A
C981        F988   1.357       .  S
C982        C983   1.404       .  A
C982        H987   1.084       .  S
C983        C984   1.404       .  A
C984        F985   1.358       .  S
C989        C990   1.406       .  A
C989        C994   1.402       .  A
C989        H996   1.083       .  S
C990        C991   1.405       .  A
C991        C992   1.395       .  A
C991        F998   1.358       .  S
C992        C993   1.403       .  A
C992        H997   1.083       .  S
C993        C994   1.407       .  A
C994        F995   1.357       .  S
C999       C1000   1.407       .  A
C999       C1004   1.407       .  A
C999       H1006   1.083       .  S
C1000      C1001   1.406       .  A
C1001      C1002   1.398       .  A
C1001      F1008   1.358       .  S
C1002      C1003   1.403       .  A
C1002      H1007   1.084       .  S
C1003      C1004   1.406       .  A
C1004      F1005   1.357       .  S
C1009      C1010   1.399       .  A
C1009      C1014   1.395       .  A
C1009      H1016   1.083       .  S
C1010      C1011   1.414       .  A
C1011      C1012   1.399       .  A
C1011      F1018   1.357       .  S
C1012      C1013   1.402       .  A
C1012      H1017   1.083       .  S
C1013      C1014   1.418       .  A
C1014      F1015   1.358       .  S
C1019      C1020   1.411       .  A
C1019      C1024   1.396       .  A
C1019      H1026   1.084       .  S
C1020      C1021   1.407       .  A
C1021      C1022   1.404       .  A
C1021      F1028   1.357       .  S
C1022      C1023   1.408       .  A
C1022      H1027   1.084       .  S
C1023      C1024   1.399       .  A
C1024      F1025   1.357       .  S
C1029      C1030   1.406       .  A
C1029      C1034   1.399       .  A
C1029      H1036   1.084       .  S
C1030      C1031   1.407       .  A
C1031      C1032   1.406       .  A
C1031      F1038   1.357       .  S
C1032      C1033   1.405       .  A
C1032      H1037   1.084       .  S
C1033      C1034   1.402       .  A
C1034      F1035   1.358       .  S
C1039      C1040   1.406       .  A
C1039      C1044   1.400       .  A
C1039      H1046   1.083       .  S
C1040      C1041   1.399       .  A
C1041      C1042   1.396       .  A
C1041      F1048   1.357       .  S
C1042      C1043   1.412       .  A
C1042      H1047   1.083       .  S
C1043      C1044   1.408       .  A
C1044      F1045   1.357       .  S
C1049      C1050   1.406       .  A
C1049      C1054   1.396       .  A
C1049      H1056   1.084       .  S
C1050      C1051   1.406       .  A
C1051      C1052   1.399       .  A
C1052      C1053   1.404       .  A
C1052      H1057   1.084       .  S
C1053      C1054   1.403       .  A
C1054      F1055   1.358       .  S
C1059      C1064   1.396       .  A
C1059      H1066   1.084       .  S
C1060      C1061   1.409   1_545  A
C1061      F1068   1.358   1_554  S
C1062      C1063   1.403       .  A
C1063      C1064   1.417       .  A
C1064      F1065   1.358       .  S
C1069      C1070   1.399       .  A
C1069      C1074   1.397       .  A
C1069      H1076   1.084       .  S
C1070      C1071   1.405       .  A
C1071      C1072   1.397       .  A
C1071      F1078   1.358       .  S
C1072      C1073   1.403       .  A
C1072      H1077   1.084       .  S
C1073      C1074   1.410       .  A
C1074      F1075   1.358       .  S
C1079      C1080   1.402       .  A
C1079      C1084   1.400       .  A
C1079      H1086   1.083       .  S
C1080      C1081   1.407       .  A
C1081      C1082   1.405       .  A
C1081      F1088   1.357       .  S
C1082      C1083   1.406       .  A
C1082      H1087   1.083       .  S
C1083      C1084   1.408       .  A
C1084      F1085   1.358       .  S
C1089      N1090   1.364       .  A
C1089      N1094   1.367       .  A
C1089      C1624   1.473       .  S
N1090      C1091   1.360   1_655  A
C1091      N1092   1.348       .  A
C1091      C1617   1.469       .  S
N1092      C1093   1.346       .  A
C1093      N1094   1.362   1_455  A
C1093      C1607   1.482       .  S
Zn1095     O1099   1.930   1_554  S
Zn1095     O1100   1.994   1_565  S
Zn1095     O1104   2.007       .  S
Zn1095     O1111   2.010       .  S
Zn1096     O1647   2.044       .  S
Zn1096     O1107   2.041       .  S
Zn1097     O1643   1.954       .  S
Zn1097     O1646   2.013       .  S
Zn1097     O1105   2.031       .  S
Zn1097     O1108   2.038       .  S
Zn1098     O1099   1.956       .  S
Zn1098     O1106   2.117       .  S
Zn1098     O1110   2.135   1_556  S
O1099     Zn1641   1.950       .  S
O1101      C1113   1.268       .  A
O1102     Zn1641   2.003       .  S
O1102      C1114   1.270       .  A
O1103     Zn1640   2.056   1_554  S
O1103      C1112   1.278       .  A
O1104      C1114   1.273   1_554  A
O1105      C1113   1.276   1_565  A
O1106      C1659   1.285       .  A
O1107      C1116   1.280       .  A
O1108      C1115   1.278       .  A
O1109      C1660   1.290       .  A
O1110      C1117   1.291       .  A
O1111      C1117   1.276       .  A
C1112      C1627   1.486       .  S
C1113      C1584   1.472       .  S
C1114      C1594   1.471       .  S
C1115      C1118   1.510       .  S
C1115      O1650   1.284       .  A
C1116      C1272   1.497       .  S
C1116      O1653   1.291       .  A
C1117      C1198   1.499       .  S
C1118      C1119   1.412       .  A
C1118      C1123   1.418       .  A
C1119      C1120   1.411       .  A
C1119      H1124   1.084       .  S
C1120      C1193   1.507       .  S
C1120      C1121   1.415       .  A
C1121      C1122   1.422       .  A
C1121      H1125   1.083       .  S
C1122      C1264   1.506       .  S
C1122      C1123   1.420       .  A
C1123      H1126   1.083       .  S
C1127      N1128   1.371   1_455  A
C1127      N1132   1.365   1_455  A
C1127      C1577   1.480       .  S
N1128      C1129   1.365       .  A
C1129      N1130   1.347       .  A
C1129      C1564   1.490       .  S
N1130      C1131   1.346       .  A
C1131      N1132   1.359       .  A
C1131      C1597   1.463   1_554  S
Zn1133     O1137   1.908       .  S
Zn1133     O1138   1.975       .  S
Zn1133     O1142   1.928       .  S
Zn1133     O1149   1.964       .  S
Zn1134     O1137   1.931       .  S
Zn1134     O1139   2.010       .  S
Zn1134     O1141   2.040       .  S
Zn1134     O1145   2.031       .  S
Zn1135     O1137   1.965       .  S
Zn1135     O1140   2.117       .  S
Zn1135     O1143   2.086       .  S
Zn1135     O1146   2.132       .  S
Zn1136     O1137   1.929       .  S
Zn1136     O1144   1.997       .  S
Zn1136     O1147   2.058       .  S
Zn1136     O1148   2.064       .  S
O1138      C1150   1.267       .  A
O1139      C1151   1.278       .  A
O1140      C1152   1.283       .  A
O1141      C1150   1.278       .  A
O1142      C1152   1.262       .  A
O1143      C1151   1.287       .  A
O1144      C1153   1.276       .  A
O1145      C1154   1.273       .  A
O1146      C1153   1.293       .  A
O1147      C1154   1.281       .  A
O1148      C1155   1.280       .  A
O1149      C1155   1.265       .  A
C1150      C1614   1.466       .  S
C1151      C1236   1.497       .  S
C1152      C1574   1.475       .  S
C1153      C1312   1.503       .  S
C1154      C1160   1.491       .  S
C1155      C1554   1.483       .  S
C1156      C1227   1.492       .  S
C1156      C1157   1.406       .  A
C1156      C1161   1.401       .  A
C1157      C1158   1.424       .  A
C1157      H1162   1.083       .  S
C1158      C1303   1.509       .  S
C1158      C1159   1.417       .  A
C1159      C1160   1.419       .  A
C1159      H1163   1.083       .  S
C1160      C1161   1.403       .  A
C1161      H1164   1.084       .  S
C1165      N1166   1.365       .  A
C1165      N1170   1.361       .  A
C1165      C1544   1.472       .  S
N1166      C1167   1.363   1_655  A
C1167      N1168   1.348       .  A
C1167      C1557   1.488       .  S
N1168      C1169   1.348       .  A
C1169      N1170   1.358   1_455  A
C1169      C1534   1.460       .  S
Zn1171     O1175   1.964       .  S
Zn1171     O1176   2.128       .  S
Zn1171     O1180   2.121       .  S
Zn1171     O1187   2.143       .  S
Zn1172     O1175   1.968       .  S
Zn1172     O1177   2.031       .  S
Zn1172     O1179   2.069       .  S
Zn1172     O1183   2.055       .  S
Zn1173     O1175   1.958       .  S
Zn1173     O1178   2.017       .  S
Zn1173     O1181   2.025       .  S
Zn1173     O1184   2.010       .  S
Zn1174     O1175   1.937       .  S
Zn1174     O1182   2.016       .  S
Zn1174     O1185   1.981       .  S
Zn1174     O1186   2.022       .  S
O1176      C1188   1.292       .  A
O1177      C1189   1.272       .  A
O1178      C1190   1.276       .  A
O1179      C1188   1.283       .  A
O1180      C1190   1.286       .  A
O1181      C1189   1.275       .  A
O1182      C1191   1.274       .  A
O1183      C1192   1.279       .  A
O1184      C1191   1.270       .  A
O1185      C1192   1.269       .  A
O1186      C1193   1.277       .  A
O1187      C1193   1.290       .  A
C1188      C1386   1.506       .  S
C1189      C1567   1.480       .  S
C1190      C1194   1.505       .  S
C1191      C1524   1.474       .  S
C1192      C1547   1.479       .  S
C1194      C1195   1.415       .  A
C1194      C1199   1.413       .  A
C1195      C1196   1.418       .  A
C1195      H1200   1.083       .  S
C1196      C1383   1.495       .  S
C1196      C1197   1.416       .  A
C1197      C1198   1.409       .  A
C1197      H1201   1.084       .  S
C1198      C1199   1.410       .  A
C1199      H1202   1.084       .  S
C1203      N1204   1.367   1_465  A
C1203      N1208   1.364   1_455  A
C1203      C1514   1.476       .  S
N1204      C1205   1.363       .  A
C1205      N1206   1.349   1_545  A
C1205      C1587   1.486       .  S
N1206      C1207   1.347       .  A
C1207      N1208   1.360       .  A
C1207      C1527   1.468       .  S
Zn1209     O1213   1.941       .  S
Zn1209     O1218   2.055       .  S
Zn1209     O1225   2.009       .  S
Zn1210     O1213   1.937       .  S
Zn1210     O1215   2.101       .  S
Zn1210     O1217   2.094       .  S
Zn1210     O1221   2.091       .  S
Zn1211     O1213   1.911       .  S
Zn1211     O1216   1.981       .  S
Zn1211     O1219   2.006       .  S
Zn1211     O1222   2.006       .  S
Zn1212     O1213   1.936       .  S
Zn1212     O1220   2.003       .  S
Zn1212     O1223   2.009       .  S
Zn1212     O1224   2.016       .  S
O1214      C1226   1.284       .  A
O1215      C1227   1.286       .  A
O1216      C1228   1.269       .  A
O1218      C1228   1.279       .  A
O1219      C1227   1.276       .  A
O1220      C1229   1.270       .  A
O1221      C1230   1.282       .  A
O1222      C1229   1.274       .  A
O1223      C1230   1.276       .  A
O1224      C1231   1.274       .  A
O1225      C1231   1.270       .  A
C1226      C1350   1.493       .  S
C1228      C1517   1.480       .  S
C1229      C1537   1.471       .  S
C1230      C1232   1.496       .  S
C1231      C1604   1.470       .  S
C1232      C1233   1.415       .  A
C1232      C1237   1.411       .  A
C1233      C1234   1.415       .  A
C1233      H1238   1.083       .  S
C1234      C1340   1.499       .  S
C1234      C1235   1.419       .  A
C1235      C1780   1.403       .  A
C1235      H1783   1.083       .  S
C1236      C1779   1.400       .  A
C1236      C1781   1.404       .  A
C1237      C1780   1.407       .  A
C1237      H1784   1.083       .  S
H1239      C1779   1.083       .  S
H1240      C1781   1.083       .  S
C1241      N1242   1.366       .  A
C1241      N1246   1.367       .  A
C1241      C1504   1.482       .  S
N1242      C1243   1.363       .  A
C1243      N1244   1.348       .  A
C1243      C1494   1.476       .  S
N1244      C1245   1.345       .  A
C1245      N1246   1.363       .  A
C1245      C1484   1.487       .  S
Zn1247     O1251   1.954       .  S
Zn1247     O1252   2.124       .  S
Zn1247     O1256   2.117       .  S
Zn1247     O1263   2.138   1_556  S
Zn1248     O1795   1.959       .  S
Zn1248     O1253   2.022       .  S
Zn1248     O1255   2.073       .  S
Zn1248     O1803   2.067       .  S
Zn1249     O1795   1.959       .  S
Zn1249     O1254   2.012       .  S
Zn1249     O1257   2.029       .  S
Zn1249     O1804   1.991       .  S
Zn1250     O1251   1.930   1_554  S
Zn1250     O1258   2.009       .  S
Zn1250     O1261   1.998       .  S
Zn1250     O1262   2.023       .  S
O1251     Zn1792   1.954       .  S
O1251     Zn1793   1.954       .  S
O1252      C1808   1.292       .  A
O1253      C1265   1.270       .  A
O1254      C1266   1.275       .  A
O1255      C1264   1.285       .  A
O1256      C1810   1.284       .  A
O1257      C1265   1.275       .  A
O1258      C1267   1.274   1_554  A
O1259     Zn1792   2.066   1_554  S
O1259      C1268   1.280       .  A
O1260     Zn1793   1.993       .  S
O1260      C1267   1.269       .  A
O1261      C1268   1.270       .  A
O1262      C1269   1.278       .  A
O1263      C1269   1.290       .  A
C1264      O1796   1.292       .  A
C1265      C1464   1.480       .  S
C1266      C1274   1.505       .  S
C1266      O1800   1.286       .  A
C1267      C1474   1.465       .  S
C1268      C1507   1.486       .  S
C1269      C1384   1.506       .  S
C1270      C1381   1.500       .  S
C1270      C1271   1.412       .  A
C1270      C1275   1.409       .  A
C1271      C1272   1.419       .  A
C1271      H1276   1.084       .  S
C1272      C1273   1.418       .  A
C1273      C1274   1.414       .  A
C1273      H1277   1.083       .  S
C1274      C1275   1.412       .  A
C1275      H1278   1.084       .  S
C1279      N1280   1.363       .  A
C1279      N1284   1.371       .  A
C1279      C1454   1.478       .  S
N1280      C1281   1.358       .  A
C1281      N1282   1.347       .  A
C1281      C1477   1.462   1_554  S
N1282      C1283   1.347       .  A
C1283      N1284   1.364       .  A
C1283      C1447   1.487       .  S
Zn1285     O1289   1.885       .  S
Zn1285     O1290   1.951   1_565  S
Zn1285     O1294   1.904   1_565  S
Zn1285     O1301   1.978       .  S
Zn1286     O1289   1.919       .  S
Zn1286     O1293   2.067       .  S
Zn1286     O1297   2.067       .  S
Zn1287     O1292   2.118       .  S
Zn1287     O1295   2.139       .  S
Zn1288     O1289   1.909       .  S
Zn1288     O1296   2.026       .  S
Zn1288     O1299   2.019       .  S
Zn1288     O1300   2.055       .  S
O1290      C1302   1.263       .  A
O1291      C1303   1.279       .  A
O1292      C1304   1.283       .  A
O1293      C1302   1.279   1_565  A
O1295      C1303   1.294       .  A
O1296      C1305   1.281       .  A
O1297      C1306   1.283       .  A
O1298      C1305   1.286       .  A
O1299      C1306   1.274       .  A
O1300      C1307   1.280       .  A
O1301      C1307   1.267       .  A
C1302      C1437   1.473       .  S
C1304      C1457   1.473       .  S
C1305      C1348   1.501       .  S
C1306      C1310   1.488       .  S
C1307      C1497   1.468       .  S
C1308      C1341   1.502       .  S
C1308      C1309   1.408       .  A
C1308      C1313   1.409       .  A
C1309      C1310   1.406       .  A
C1309      H1314   1.083       .  S
C1310      C1311   1.414       .  A
C1311      C1312   1.410       .  A
C1311      H1315   1.083       .  S
C1312      C1313   1.421       .  A
C1313      H1316   1.083       .  S
C1317      N1318   1.364       .  A
C1317      N1322   1.371       .  A
C1317      C1424   1.479       .  S
N1318      C1319   1.358       .  A
C1319      N1320   1.347       .  A
C1319      C1414   1.458       .  S
N1320      C1321   1.347       .  A
C1321      N1322   1.364       .  A
C1321      C1467   1.484       .  S
Zn1323     O1327   1.921       .  S
Zn1323     O1328   1.995       .  S
Zn1323     O1332   2.069       .  S
Zn1323     O1339   2.069       .  S
Zn1324     O1327   1.954       .  S
Zn1324     O1329   2.083       .  S
Zn1324     O1331   2.120       .  S
Zn1324     O1335   2.107       .  S
Zn1325     O1327   1.913       .  S
Zn1325     O1330   2.012       .  S
Zn1325     O1333   2.036       .  S
Zn1325     O1336   2.047       .  S
Zn1326     O1327   1.889       .  S
Zn1326     O1334   1.968       .  S
Zn1326     O1337   1.922       .  S
Zn1326     O1338   1.967       .  S
O1328      C1340   1.278       .  A
O1329      C1341   1.286       .  A
O1330      C1342   1.273       .  A
O1331      C1340   1.291       .  A
O1332      C1342   1.282       .  A
O1333      C1341   1.281       .  A
O1334      C1343   1.267       .  A
O1335      C1344   1.282       .  A
O1336      C1343   1.280       .  A
O1337      C1344   1.262       .  A
O1338      C1345   1.265       .  A
O1339      C1345   1.280       .  A
C1342      C1346   1.487       .  S
C1343      C1404   1.466       .  S
C1344      C1427   1.472       .  S
C1345      C1487   1.483       .  S
C1346      C1347   1.402       .  A
C1346      C1351   1.408       .  A
C1347      C1892   1.411       .  A
C1347      H1896   1.083       .  S
C1348      C1891   1.411       .  A
C1348      C1893   1.416       .  A
C1349      C1892   1.417       .  A
C1349      C1350   1.418       .  A
C1349      H1897   1.083   1_565  S
C1350      C1351   1.407       .  A
C1351      H1354   1.084       .  S
H1352      C1891   1.083       .  S
H1353      C1893   1.083   1_545  S
C1355      N1356   1.365       .  A
C1355      N1360   1.364       .  A
C1355      C1394   1.473       .  S
N1356      C1357   1.361   1_565  A
C1357      N1358   1.345   1_545  A
C1357      C1434   1.484       .  S
N1358      C1359   1.348       .  A
C1359      N1360   1.362       .  A
C1359      C1407   1.473       .  S
Zn1361     O1365   1.964       .  S
Zn1361     O1366   2.022       .  S
Zn1361     O1370   2.046       .  S
Zn1362     O1365   1.957       .  S
Zn1362     O1367   2.008       .  S
Zn1362     O1369   2.032       .  S
Zn1362     O1373   2.037       .  S
Zn1363     O1365   1.934       .  S
Zn1363     O1368   1.987       .  S
Zn1363     O1371   2.006       .  S
Zn1363     O1374   2.011       .  S
Zn1364     O1365   1.963       .  S
Zn1364     O1372   2.134       .  S
Zn1364     O1375   2.125       .  S
Zn1364     O1376   2.124       .  S
O1366      C1378   1.271       .  A
O1367      C1379   1.271       .  A
O1368      C1380   1.269       .  A
O1369      C1378   1.276       .  A
O1370      C1380   1.276       .  A
O1371      C1379   1.273       .  A
O1372      C1381   1.289       .  A
O1373      C1382   1.278       .  A
O1374      C1381   1.275       .  A
O1375      C1382   1.286       .  A
O1377      C1383   1.280       .  A
C1378      C1444   1.477       .  S
C1379      C1417   1.477       .  S
C1380      C1397   1.478       .  S
C1382      C1388   1.511       .  S
C1384      C1385   1.414       .  A
C1384      C1389   1.411       .  A
C1385      C1386   1.421       .  A
C1385      H1390   1.083       .  S
C1386      C1387   1.422       .  A
C1387      C1388   1.419       .  A
C1387      H1391   1.083       .  S
C1388      C1389   1.411       .  A
C1389      H1392   1.084       .  S
C1393      C1394   1.404       .  A
C1393      C1398   1.403       .  A
C1393      H1400   1.083       .  S
C1395      C1396   1.402       .  A
C1395      F1402   1.357       .  S
C1396      C1397   1.407       .  A
C1396      H1401   1.083       .  S
C1398      F1399   1.357       .  S
C1403      C1404   1.397       .  A
C1403      C1408   1.393       .  A
C1403      H1410   1.084       .  S
C1404      C1405   1.407       .  A
C1405      C1406   1.399       .  A
C1405      F1412   1.358       .  S
C1406      C1407   1.404       .  A
C1406      H1411   1.083       .  S
C1407      C1408   1.412       .  A
C1408      F1409   1.358       .  S
C1413      C1414   1.401       .  A
C1413      C1418   1.396       .  A
C1413      H1420   1.085       .  S
C1414      C1415   1.404       .  A
C1415      C1416   1.398       .  A
C1415      F1422   1.358       .  S
C1416      C1417   1.405       .  A
C1416      H1421   1.084       .  S
C1417      C1418   1.409       .  A
C1418      F1419   1.358       .  S
C1423      C1424   1.408       .  A
C1423      C1428   1.406       .  A
C1423      H1430   1.083       .  S
C1424      C1425   1.402       .  A
C1425      C1426   1.397       .  A
C1425      F1432   1.358       .  S
C1426      C1427   1.407       .  A
C1426      H1431   1.084       .  S
C1427      C1428   1.404       .  A
C1428      F1429   1.357       .  S
C1433      C1434   1.414       .  A
C1433      C1438   1.395       .  A
C1433      H1440   1.083       .  S
C1434      C1435   1.405       .  A
C1435      C1436   1.397       .  A
C1435      F1442   1.357       .  S
C1436      C1437   1.409       .  A
C1436      H1441   1.084       .  S
C1437      C1438   1.398       .  A
C1438      F1439   1.358       .  S
C1443      C1444   1.397       .  A
C1443      C1448   1.398       .  A
C1443      H1450   1.083       .  S
C1444      C1445   1.410       .  A
C1445      C1446   1.404       .  A
C1445      F1452   1.358       .  S
C1446      C1447   1.404       .  A
C1446      H1451   1.083       .  S
C1447      C1448   1.415       .  A
C1448      F1449   1.358       .  S
C1453      C1454   1.399       .  A
C1453      C1458   1.398       .  A
C1453      H1460   1.082       .  S
C1454      C1455   1.409       .  A
C1455      C1456   1.407       .  A
C1455      F1462   1.357       .  S
C1456      C1457   1.405       .  A
C1457      C1458   1.409       .  A
C1458      F1459   1.358       .  S
C1463      C1464   1.399       .  A
C1463      C1468   1.399       .  A
C1463      H1470   1.083       .  S
C1464      C1465   1.411       .  A
C1465      C1466   1.403       .  A
C1465      F1472   1.358       .  S
C1466      C1467   1.403       .  A
C1466      H1471   1.083       .  S
C1467      C1468   1.413       .  A
C1468      F1469   1.358       .  S
C1473      C1474   1.403       .  A
C1473      C1478   1.396   1_556  A
C1473      H1480   1.083   1_556  S
C1474      C1475   1.402       .  A
C1475      C1476   1.396       .  A
C1475      F1482   1.358       .  S
C1476      C1477   1.406       .  A
C1476      H1481   1.083       .  S
C1477      C1478   1.403   1_556  A
C1478      F1479   1.358       .  S
C1483      C1484   1.400       .  A
C1483      C2032   1.398       .  A
C1483      H2034   1.083       .  S
C1484      C1485   1.417       .  A
C1485      C1486   1.398       .  A
C1485      F1492   1.358       .  S
C1486      C2031   1.399       .  A
C1486      H1491   1.083       .  S
C1487      C2030   1.399       .  A
C1487      C1488   1.414       .  A
C1488      C2027   1.399       .  A
C1488      F1489   1.357       .  S
H1490      C2027   1.083       .  S
C1493      C1494   1.409       .  A
C1493      C1498   1.395       .  A
C1493      H1500   1.084       .  S
C1494      C1495   1.407       .  A
C1495      C1496   1.402       .  A
C1495      F1502   1.357       .  S
C1496      C1497   1.404       .  A
C1496      H1501   1.084       .  S
C1497      C1498   1.399       .  A
C1498      F1499   1.358       .  S
C1503      C1504   1.403       .  A
C1503      C1508   1.403       .  A
C1503      H1510   1.083       .  S
C1504      C1505   1.405       .  A
C1505      C1506   1.406       .  A
C1505      F1512   1.357       .  S
C1506      C1507   1.408       .  A
C1506      H1511   1.083       .  S
C1507      C1508   1.409       .  A
C1508      F1509   1.357       .  S
C1513      C1518   1.401       .  A
C1513      H1520   1.083       .  S
C1514      C1515   1.404       .  A
C1515      C1516   1.403       .  A
C1515      F1522   1.357       .  S
C1516      H1521   1.083       .  S
C1517      C1518   1.411       .  A
C1518      F1519   1.358       .  S
C1523      C1524   1.404       .  A
C1523      C1528   1.398       .  A
C1523      H1530   1.084       .  S
C1524      C1525   1.404       .  A
C1525      C1526   1.399       .  A
C1525      F1532   1.358       .  S
C1526      C1527   1.406       .  A
C1526      H1531   1.084       .  S
C1527      C1528   1.405       .  A
C1528      F1529   1.358       .  S
C1533      C1534   1.405       .  A
C1533      C1538   1.399       .  A
C1533      H1540   1.083       .  S
C1534      C1535   1.404       .  A
C1535      C1536   1.394       .  A
C1535      F1542   1.358       .  S
C1536      C1537   1.402       .  A
C1536      H1541   1.083       .  S
C1537      C1538   1.406       .  A
C1538      F1539   1.357       .  S
C1543      C1544   1.401       .  A
C1543      C1548   1.401       .  A
C1543      H1550   1.083       .  S
C1544      C1545   1.404       .  A
C1545      C1546   1.402       .  A
C1545      F1552   1.358       .  S
C1546      C1547   1.406       .  A
C1546      H1551   1.083       .  S
C1547      C1548   1.410       .  A
C1548      F1549   1.358       .  S
C1553      C1554   1.399       .  A
C1553      C1558   1.396       .  A
C1553      H1560   1.083       .  S
C1554      C1555   1.415       .  A
C1555      C1556   1.398       .  A
C1555      F1562   1.358       .  S
C1556      C1557   1.402       .  A
C1556      H1561   1.083       .  S
C1557      C1558   1.417       .  A
C1558      F1559   1.358       .  S
C1563      C1564   1.412       .  A
C1563      C1568   1.396       .  A
C1563      H1570   1.084       .  S
C1564      C1565   1.407       .  A
C1565      C1566   1.406       .  A
C1565      F1572   1.357       .  S
C1566      C1567   1.409       .  A
C1566      H1571   1.083       .  S
C1567      C1568   1.400       .  A
C1568      F1569   1.358       .  S
C1573      C1574   1.406       .  A
C1573      C1578   1.400       .  A
C1573      H1580   1.084       .  S
C1574      C1575   1.408       .  A
C1575      C1576   1.407       .  A
C1575      F1582   1.357       .  S
C1576      C1577   1.405       .  A
C1576      H1581   1.084       .  S
C1577      C1578   1.402       .  A
C1578      F1579   1.358       .  S
C1583      C1584   1.407       .  A
C1583      C1588   1.401       .  A
C1583      H1590   1.082       .  S
C1584      C1585   1.398       .  A
C1585      C1586   1.396       .  A
C1585      F1592   1.358       .  S
C1586      C1587   1.413       .  A
C1586      H1591   1.083       .  S
C1587      C1588   1.407       .  A
C1588      F1589   1.357       .  S
C1593      C1594   1.405   1_554  A
C1593      C1598   1.398       .  A
C1593      H1600   1.084       .  S
C1594      C1595   1.403       .  A
C1595      C1596   1.397       .  A
C1595      F2146   1.358       .  S
C1596      C1597   1.406       .  A
C1596      H1601   1.084       .  S
C1597      C1598   1.403   1_556  A
C1598      F1599   1.358       .  S
F1602      C2139   1.358       .  S
C1603      C2148   1.397       .  A
C1603      C1608   1.397       .  A
C1603      H1610   1.084       .  S
C1604      C2147   1.397       .  A
C1604      C1605   1.409       .  A
C1605      C2150   1.400       .  A
C1605      F1612   1.358       .  S
C1606      C2149   1.401       .  A
C1606      C1607   1.403       .  A
C1606      H2155   1.083       .  S
C1607      C1608   1.414       .  A
C1608      F1609   1.358       .  S
H1611      C2150   1.083       .  S
C1613      C1614   1.398       .  A
C1613      C1618   1.394       .  A
C1613      H1620   1.084       .  S
C1614      C1615   1.407       .  A
C1615      C1616   1.400       .  A
C1615      F1622   1.358       .  S
C1616      C1617   1.403       .  A
C1616      H1621   1.084   1_455  S
C1617      C1618   1.409       .  A
C1618      F1619   1.358       .  S
C1623      C1624   1.403       .  A
C1623      C1628   1.403       .  A
C1623      H1630   1.083       .  S
C1624      C1625   1.401       .  A
C1625      C1626   1.399       .  A
C1625      F1632   1.358       .  S
C1626      C1627   1.410       .  A
C1626      H1631   1.083       .  S
C1627      C1628   1.409       .  A
C1628      F1629   1.357       .  S
C1633      N1634   1.364       .  A
C1633      N1638   1.366       .  A
C1633      C2168   1.477       .  S
N1634      C1635   1.362   1_655  A
C1635      N1636   1.349       .  A
C1635      C2161   1.475       .  S
N1636      C1637   1.347       .  A
C1637      N1638   1.361   1_455  A
C1637      C2151   1.483       .  S
Zn1639     O1643   1.928       .  S
Zn1639     O1644   1.992   1_565  S
Zn1639     O1648   2.006       .  S
Zn1639     O1655   2.012       .  S
Zn1640     O1651   2.047       .  S
Zn1641     O1649   2.018       .  S
Zn1641     O1652   2.015       .  S
Zn1642     O1643   1.952       .  S
Zn1642     O1650   2.116       .  S
Zn1642     O1654   2.129       .  S
O1645      C1657   1.269       .  A
O1646      C1658   1.272       .  A
O1647      C1656   1.276       .  A
O1648      C1658   1.274       .  A
O1649      C1657   1.274   1_565  A
O1651      C1660   1.280       .  A
O1652      C1659   1.275       .  A
O1654      C1661   1.290       .  A
O1655      C1661   1.276       .  A
C1656      C2171   1.480       .  S
C1657      C2128   1.472       .  S
C1658      C2138   1.471       .  S
C1659      C1662   1.503       .  S
C1660      C1816   1.502       .  S
C1661      C1742   1.498       .  S
C1662      C1663   1.411       .  A
C1662      C1667   1.413       .  A
C1663      C1664   1.410       .  A
C1663      H1668   1.084       .  S
C1664      C1737   1.508       .  S
C1664      C1665   1.417       .  A
C1665      C1666   1.424       .  A
C1665      H1669   1.083       .  S
C1666      C1808   1.503       .  S
C1666      C1667   1.418       .  A
C1667      H1670   1.083       .  S
C1671      N1672   1.369   1_455  A
C1671      N1676   1.365   1_455  A
C1671      C2121   1.477       .  S
N1672      C1673   1.363       .  A
C1673      N1674   1.348       .  A
C1673      C2108   1.488       .  S
N1674      C1675   1.348       .  A
C1675      N1676   1.361       .  A
C1675      C2141   1.467       .  S
Zn1677     O1681   1.922       .  S
Zn1677     O1682   1.977       .  S
Zn1677     O1686   1.939       .  S
Zn1677     O1693   1.968       .  S
Zn1678     O1681   1.945       .  S
Zn1678     O1683   2.021       .  S
Zn1678     O1685   2.039       .  S
Zn1678     O1689   2.029       .  S
Zn1679     O1681   1.975       .  S
Zn1679     O1684   2.111       .  S
Zn1679     O1687   2.095       .  S
Zn1679     O1690   2.126       .  S
Zn1680     O1681   1.941       .  S
Zn1680     O1688   2.021       .  S
Zn1680     O1691   2.069       .  S
Zn1680     O1692   2.079       .  S
O1682      C1694   1.267       .  A
O1683      C1695   1.278       .  A
O1684      C1696   1.283       .  A
O1685      C1694   1.277       .  A
O1686      C1696   1.263       .  A
O1687      C1695   1.287       .  A
O1688      C1697   1.279       .  A
O1689      C1698   1.273       .  A
O1690      C1697   1.291       .  A
O1691      C1698   1.282       .  A
O1692      C1699   1.280       .  A
O1693      C1699   1.265       .  A
C1694      C2158   1.472       .  S
C1695      C1780   1.502       .  S
C1696      C2118   1.475       .  S
C1697      C1856   1.506       .  S
C1698      C1704   1.494       .  S
C1699      C2098   1.490       .  S
C1700      C1771   1.489       .  S
C1700      C1701   1.406       .  A
C1700      C1705   1.402       .  A
C1701      C1702   1.420       .  A
C1701      H1706   1.083       .  S
C1702      C1847   1.509       .  S
C1702      C1703   1.419       .  A
C1703      C1704   1.419       .  A
C1703      H1707   1.083       .  S
C1704      C1705   1.403       .  A
C1705      H1708   1.084       .  S
C1709      N1710   1.367       .  A
C1709      N1714   1.363       .  A
C1709      C2088   1.475       .  S
N1710      C1711   1.363   1_655  A
C1711      N1712   1.346       .  A
C1711      C2101   1.491       .  S
N1712      C1713   1.348       .  A
C1713      N1714   1.359   1_455  A
C1713      C2078   1.459       .  S
Zn1715     O1719   1.948       .  S
Zn1715     O1720   2.124       .  S
Zn1715     O1724   2.117       .  S
Zn1715     O1731   2.143       .  S
Zn1716     O1719   1.962       .  S
Zn1716     O1721   2.031       .  S
Zn1716     O1723   2.069       .  S
Zn1716     O1727   2.075       .  S
Zn1717     O1719   1.949       .  S
Zn1717     O1722   2.015       .  S
Zn1717     O1725   2.017       .  S
Zn1717     O1728   2.011       .  S
Zn1718     O1719   1.918       .  S
Zn1718     O1726   2.020       .  S
Zn1718     O1729   1.972       .  S
Zn1718     O1730   2.025       .  S
O1720      C1732   1.291       .  A
O1721      C1733   1.273       .  A
O1722      C1734   1.276       .  A
O1723      C1732   1.284       .  A
O1724      C1734   1.286       .  A
O1725      C1733   1.275       .  A
O1726      C1735   1.275       .  A
O1727      C1736   1.281       .  A
O1728      C1735   1.270       .  A
O1729      C1736   1.268       .  A
O1730      C1737   1.278       .  A
O1731      C1737   1.291       .  A
C1732      C1930   1.506       .  S
C1733      C2111   1.479       .  S
C1734      C1738   1.504       .  S
C1735      C2068   1.474       .  S
C1736      C2091   1.491       .  S
C1738      C1739   1.414       .  A
C1738      C1743   1.413       .  A
C1739      C1740   1.417       .  A
C1739      H1744   1.083       .  S
C1740      C1927   1.495       .  S
C1740      C1741   1.416       .  A
C1741      C1742   1.410       .  A
C1741      H1745   1.084       .  S
C1742      C1743   1.410       .  A
C1743      H1746   1.084       .  S
C1747      N1748   1.366   1_455  A
C1747      N1752   1.364   1_455  A
C1747      C2058   1.477       .  S
N1748      C1749   1.362       .  A
C1749      N1750   1.349       .  A
C1749      C2131   1.487   1_565  S
N1750      C1751   1.348       .  A
C1751      N1752   1.362       .  A
C1751      C2071   1.468       .  S
Zn1753     O1757   1.939       .  S
Zn1753     O1762   2.046       .  S
Zn1753     O1769   2.012       .  S
Zn1754     O1757   1.938       .  S
Zn1754     O1759   2.091       .  S
Zn1754     O1761   2.094       .  S
Zn1754     O1765   2.091       .  S
Zn1755     O1757   1.914       .  S
Zn1755     O1760   1.980       .  S
Zn1755     O1763   2.008       .  S
Zn1755     O1766   2.009       .  S
Zn1756     O1757   1.935       .  S
Zn1756     O1764   2.003       .  S
Zn1756     O1767   2.020       .  S
Zn1756     O1768   2.024   1_556  S
O1758      C1770   1.283       .  A
O1759      C1771   1.285       .  A
O1760      C1772   1.268       .  A
O1762      C1772   1.278       .  A
O1763      C1771   1.277       .  A
O1764      C1773   1.269       .  A
O1765      C1774   1.281       .  A
O1766      C1773   1.274       .  A
O1767      C1774   1.278       .  A
O1768      C1775   1.276       .  A
O1769      C1775   1.270   1_556  A
C1770      C1894   1.495       .  S
C1772      C2061   1.474       .  S
C1773      C2081   1.475       .  S
C1774      C1776   1.499       .  S
C1775      C2148   1.474       .  S
C1776      C1777   1.420       .  A
C1776      C1781   1.409   1_556  A
C1777      C1778   1.420       .  A
C1777      H1782   1.083       .  S
C1778      C1884   1.504       .  S
C1778      C1779   1.418   1_556  A
C1785      N1786   1.366       .  A
C1785      N1790   1.367       .  A
C1785      C2048   1.481       .  S
N1786      C1787   1.362       .  A
C1787      N1788   1.348       .  A
C1787      C2038   1.473       .  S
N1788      C1789   1.346       .  A
C1789      N1790   1.364       .  A
C1789      C2028   1.489       .  S
Zn1791     O1795   1.957       .  S
Zn1791     O1796   2.123       .  S
Zn1791     O1800   2.123       .  S
Zn1791     O1807   2.143       .  S
Zn1792     O1797   2.012       .  S
Zn1792     O1799   2.058       .  S
Zn1793     O1798   2.014       .  S
Zn1793     O1801   2.027       .  S
Zn1794     O1795   1.934       .  S
Zn1794     O1802   2.011       .  S
Zn1794     O1805   1.997       .  S
Zn1794     O1806   2.032       .  S
O1797      C1809   1.270       .  A
O1798      C1810   1.275       .  A
O1799      C1808   1.283       .  A
O1801      C1809   1.275       .  A
O1802      C1811   1.275       .  A
O1803      C1812   1.281       .  A
O1804      C1811   1.268       .  A
O1805      C1812   1.270       .  A
O1806      C1813   1.278       .  A
O1807      C1813   1.290       .  A
C1809      C2008   1.477       .  S
C1810      C1818   1.504       .  S
C1811      C2018   1.464       .  S
C1812      C2051   1.486       .  S
C1813      C1928   1.509       .  S
C1814      C1925   1.503       .  S
C1814      C1815   1.416       .  A
C1814      C1819   1.409       .  A
C1815      C1816   1.423       .  A
C1815      H1820   1.083       .  S
C1816      C1817   1.418       .  A
C1817      C1818   1.414       .  A
C1817      H1821   1.083       .  S
C1818      C1819   1.410       .  A
C1819      H1822   1.084       .  S
C1823      N1824   1.360       .  A
C1823      N1828   1.370       .  A
C1823      C1998   1.473       .  S
N1824      C1825   1.357       .  A
C1825      N1826   1.348       .  A
C1825      C2021   1.460       .  S
N1826      C1827   1.348       .  A
C1827      N1828   1.365       .  A
C1827      C1991   1.487       .  S
Zn1829     O1833   1.892       .  S
Zn1829     O1834   1.953   1_565  S
Zn1829     O1838   1.905   1_565  S
Zn1829     O1845   1.968       .  S
Zn1830     O1833   1.923       .  S
Zn1830     O1837   2.079       .  S
Zn1830     O1841   2.079       .  S
Zn1831     O1836   2.105       .  S
Zn1831     O1839   2.125       .  S
Zn1832     O1833   1.915       .  S
Zn1832     O1840   2.032       .  S
Zn1832     O1843   2.027       .  S
Zn1832     O1844   2.057       .  S
O1834      C1846   1.263       .  A
O1835      C1847   1.281       .  A
O1836      C1848   1.281       .  A
O1837      C1846   1.281   1_565  A
O1839      C1847   1.292       .  A
O1840      C1849   1.282       .  A
O1841      C1850   1.285       .  A
O1842      C1849   1.286       .  A
O1843      C1850   1.274       .  A
O1844      C1851   1.280       .  A
O1845      C1851   1.266       .  A
C1846      C1981   1.477       .  S
C1848      C2001   1.467       .  S
C1849      C1892   1.503       .  S
C1850      C1854   1.493       .  S
C1851      C2041   1.466       .  S
C1852      C1885   1.499       .  S
C1852      C1853   1.407       .  A
C1852      C1857   1.408       .  A
C1853      C1854   1.405       .  A
C1853      H1858   1.083       .  S
C1854      C1855   1.418       .  A
C1855      C1856   1.416       .  A
C1855      H1859   1.083       .  S
C1856      C1857   1.418       .  A
C1857      H1860   1.083       .  S
C1861      N1862   1.364       .  A
C1861      N1866   1.369       .  A
C1861      C1968   1.481       .  S
N1862      C1863   1.359       .  A
C1863      N1864   1.347       .  A
C1863      C1958   1.458       .  S
N1864      C1865   1.346       .  A
C1865      N1866   1.362       .  A
C1865      C2011   1.482       .  S
Zn1867     O1871   1.915       .  S
Zn1867     O1872   2.000       .  S
Zn1867     O1876   2.082       .  S
Zn1867     O1883   2.083   1_556  S
Zn1868     O1871   1.955       .  S
Zn1868     O1873   2.079       .  S
Zn1868     O1875   2.127       .  S
Zn1868     O1879   2.116       .  S
Zn1869     O1871   1.910       .  S
Zn1869     O1874   2.015       .  S
Zn1869     O1877   2.029       .  S
Zn1869     O1880   2.053       .  S
Zn1870     O1871   1.873       .  S
Zn1870     O1878   1.963       .  S
Zn1870     O1881   1.915       .  S
Zn1870     O1882   1.957       .  S
O1872      C1884   1.279       .  A
O1873      C1885   1.286       .  A
O1874      C1886   1.274       .  A
O1875      C1884   1.292       .  A
O1876      C1886   1.285       .  A
O1877      C1885   1.281       .  A
O1878      C1887   1.266       .  A
O1879      C1888   1.283       .  A
O1880      C1887   1.280       .  A
O1881      C1888   1.261       .  A
O1882      C1889   1.264   1_556  A
O1883      C1889   1.282       .  A
C1886      C1890   1.490       .  S
C1887      C1948   1.463       .  S
C1888      C1971   1.475       .  S
C1889      C2031   1.483       .  S
C1890      C1891   1.401   1_556  A
C1890      C1895   1.412       .  A
C1893      C1894   1.417   1_554  A
C1894      C1895   1.411       .  A
C1895      H1898   1.084       .  S
C1899      N1900   1.368       .  A
C1899      N1904   1.363       .  A
C1899      C1938   1.471       .  S
N1900      C1901   1.362       .  A
C1901      N1902   1.345       .  A
C1901      C1978   1.487   1_565  S
N1902      C1903   1.347       .  A
C1903      N1904   1.360       .  A
C1903      C1951   1.469       .  S
Zn1905     O1909   1.960       .  S
Zn1905     O1910   2.029       .  S
Zn1905     O1914   2.054       .  S
Zn1906     O1909   1.954       .  S
Zn1906     O1911   2.002       .  S
Zn1906     O1913   2.026       .  S
Zn1906     O1917   2.023       .  S
Zn1907     O1909   1.924       .  S
Zn1907     O1912   1.978       .  S
Zn1907     O1915   2.004       .  S
Zn1907     O1918   2.009       .  S
Zn1908     O1909   1.956       .  S
Zn1908     O1916   2.143       .  S
Zn1908     O1919   2.127       .  S
Zn1908     O1920   2.117       .  S
O1910      C1922   1.271       .  A
O1911      C1923   1.270       .  A
O1912      C1924   1.269       .  A
O1913      C1922   1.275       .  A
O1914      C1924   1.277       .  A
O1915      C1923   1.273       .  A
O1916      C1925   1.290       .  A
O1917      C1926   1.277       .  A
O1918      C1925   1.275       .  A
O1919      C1926   1.287       .  A
O1921      C1927   1.280       .  A
C1922      C1988   1.477       .  S
C1923      C1961   1.474       .  S
C1924      C1941   1.484       .  S
C1926      C1932   1.508       .  S
C1928      C1929   1.417       .  A
C1928      C1933   1.411       .  A
C1929      C1930   1.423       .  A
C1929      H1934   1.083       .  S
C1930      C1931   1.419       .  A
C1931      C1932   1.416       .  A
C1931      H1935   1.083       .  S
C1932      C1933   1.413       .  A
C1933      H1936   1.084       .  S
C1937      C1938   1.403       .  A
C1937      C1942   1.403       .  A
C1937      H1944   1.083       .  S
C1939      C1940   1.399       .  A
C1939      F1946   1.357       .  S
C1940      C1941   1.409       .  A
C1940      H1945   1.083       .  S
C1942      F1943   1.357       .  S
C1947      C1948   1.397       .  A
C1947      C1952   1.394       .  A
C1947      H1954   1.084       .  S
C1948      C1949   1.406       .  A
C1949      C1950   1.398       .  A
C1949      F1956   1.358       .  S
C1950      C1951   1.403       .  A
C1950      H1955   1.083       .  S
C1951      C1952   1.411       .  A
C1952      F1953   1.358       .  S
C1957      C1958   1.401       .  A
C1957      C1962   1.395       .  A
C1957      H1964   1.085       .  S
C1958      C1959   1.404       .  A
C1959      C1960   1.398       .  A
C1959      F1966   1.358       .  S
C1960      C1961   1.404       .  A
C1960      H1965   1.084       .  S
C1961      C1962   1.407       .  A
C1962      F1963   1.358       .  S
C1967      C1968   1.409       .  A
C1967      C1972   1.408       .  A
C1967      H1974   1.083       .  S
C1968      C1969   1.402       .  A
C1969      C1970   1.395       .  A
C1969      F1976   1.358       .  S
C1970      C1971   1.407       .  A
C1970      H1975   1.084       .  S
C1971      C1972   1.405       .  A
C1972      F1973   1.357       .  S
C1977      C1978   1.414       .  A
C1977      C1982   1.395       .  A
C1977      H1984   1.084       .  S
C1978      C1979   1.405       .  A
C1979      C1980   1.400       .  A
C1979      F1986   1.357       .  S
C1980      C1981   1.411       .  A
C1980      H1985   1.084       .  S
C1981      C1982   1.398       .  A
C1982      F1983   1.357       .  S
C1987      C1988   1.398       .  A
C1987      C1992   1.399       .  A
C1987      H1994   1.083       .  S
C1988      C1989   1.410       .  A
C1989      C1990   1.404       .  A
C1989      F1996   1.358       .  S
C1990      C1991   1.404       .  A
C1990      H1995   1.083       .  S
C1991      C1992   1.414       .  A
C1992      F1993   1.358       .  S
C1997      C1998   1.401       .  A
C1997      C2002   1.401       .  A
C1997      H2004   1.081       .  S
C1998      C1999   1.403       .  A
C1999      C2000   1.402       .  A
C1999      F2006   1.357       .  S
C2000      C2001   1.406       .  A
C2001      C2002   1.407       .  A
C2002      F2003   1.358       .  S
C2007      C2008   1.399       .  A
C2007      C2012   1.398       .  A
C2007      H2014   1.083       .  S
C2008      C2009   1.410       .  A
C2009      C2010   1.401       .  A
C2009      F2016   1.358       .  S
C2010      C2011   1.403       .  A
C2010      H2015   1.083       .  S
C2011      C2012   1.413       .  A
C2012      F2013   1.358       .  S
C2017      C2018   1.401       .  A
C2017      C2022   1.393       .  A
C2017      H2024   1.084       .  S
C2018      C2019   1.403       .  A
C2019      C2020   1.398       .  A
C2019      F2026   1.357       .  S
C2020      C2021   1.406       .  A
C2020      H2025   1.084       .  S
C2021      C2022   1.404       .  A
C2022      F2023   1.358       .  S
C2027      C2028   1.401       .  A
C2028      C2029   1.418       .  A
C2029      C2030   1.396       .  A
C2029      F2036   1.358       .  S
C2030      H2035   1.084       .  S
C2031      C2032   1.415       .  A
C2032      F2033   1.357   1_554  S
C2037      C2038   1.409       .  A
C2037      C2042   1.396       .  A
C2037      H2044   1.084       .  S
C2038      C2039   1.407       .  A
C2039      C2040   1.400       .  A
C2039      F2046   1.357       .  S
C2040      C2041   1.403       .  A
C2040      H2045   1.084       .  S
C2041      C2042   1.399       .  A
C2042      F2043   1.358       .  S
C2047      C2048   1.403       .  A
C2047      C2052   1.403       .  A
C2047      H2054   1.083       .  S
C2048      C2049   1.405       .  A
C2049      C2050   1.405       .  A
C2049      F2056   1.357       .  S
C2050      C2051   1.408       .  A
C2050      H2055   1.083       .  S
C2051      C2052   1.409       .  A
C2052      F2053   1.357       .  S
C2057      C2062   1.404       .  A
C2057      H2064   1.083       .  S
C2058      C2059   1.405       .  A
C2059      C2060   1.403       .  A
C2059      F2066   1.357       .  S
C2060      H2065   1.083       .  S
C2061      C2062   1.408       .  A
C2062      F2063   1.357       .  S
C2067      C2068   1.403       .  A
C2067      C2072   1.396       .  A
C2067      H2074   1.084       .  S
C2068      C2069   1.405       .  A
C2069      C2070   1.401       .  A
C2069      F2076   1.358       .  S
C2070      C2071   1.407       .  A
C2070      H2075   1.084       .  S
C2071      C2072   1.405       .  A
C2072      F2073   1.358       .  S
C2077      C2078   1.405       .  A
C2077      C2082   1.399       .  A
C2077      H2084   1.083       .  S
C2078      C2079   1.403       .  A
C2079      C2080   1.394       .  A
C2079      F2086   1.358       .  S
C2080      C2081   1.404       .  A
C2080      H2085   1.083       .  S
C2081      C2082   1.407       .  A
C2082      F2083   1.357       .  S
C2087      C2088   1.397       .  A
C2087      C2092   1.397       .  A
C2087      H2094   1.084       .  S
C2088      C2089   1.407       .  A
C2089      C2090   1.407       .  A
C2089      F2096   1.357       .  S
C2090      C2091   1.408       .  A
C2090      H2095   1.083       .  S
C2091      C2092   1.416       .  A
C2092      F2093   1.358       .  S
C2097      C2098   1.401       .  A
C2097      C2102   1.399       .  A
C2097      H2104   1.083       .  S
C2098      C2099   1.417       .  A
C2099      C2100   1.400       .  A
C2099      F2106   1.358       .  S
C2100      C2101   1.402       .  A
C2100      H2105   1.083       .  S
C2101      C2102   1.418       .  A
C2102      F2103   1.358       .  S
C2107      C2108   1.411       .  A
C2107      C2112   1.396       .  A
C2107      H2114   1.084       .  S
C2108      C2109   1.407       .  A
C2109      C2110   1.405       .  A
C2109      F2116   1.357       .  S
C2110      C2111   1.409       .  A
C2110      H2115   1.083       .  S
C2111      C2112   1.401       .  A
C2112      F2113   1.358       .  S
C2117      C2118   1.405       .  A
C2117      C2122   1.404       .  A
C2117      H2124   1.084       .  S
C2118      C2119   1.409       .  A
C2119      C2120   1.403       .  A
C2119      F2126   1.358       .  S
C2120      C2121   1.402       .  A
C2120      H2125   1.084       .  S
C2121      C2122   1.405       .  A
C2122      F2123   1.357       .  S
C2127      C2128   1.407       .  A
C2127      C2132   1.401       .  A
C2127      H2134   1.083       .  S
C2128      C2129   1.398       .  A
C2129      C2130   1.395       .  A
C2129      F2136   1.358       .  S
C2130      C2131   1.413       .  A
C2130      H2135   1.082       .  S
C2131      C2132   1.408       .  A
C2132      F2133   1.357       .  S
C2137      C2138   1.405       .  A
C2137      C2142   1.399       .  A
C2137      H2144   1.084       .  S
C2138      C2139   1.402       .  A
C2139      C2140   1.398       .  A
C2140      C2141   1.407       .  A
C2140      H2145   1.084       .  S
C2141      C2142   1.404       .  A
C2142      F2143   1.358       .  S
C2147      C2152   1.396       .  A
C2147      H2154   1.084       .  S
C2148      C2149   1.410       .  A
C2149      F2156   1.358   1_554  S
C2150      C2151   1.403       .  A
C2151      C2152   1.415       .  A
C2152      F2153   1.358       .  S
C2157      C2158   1.399       .  A
C2157      C2162   1.394       .  A
C2157      H2164   1.084       .  S
C2158      C2159   1.408       .  A
C2159      C2160   1.399       .  A
C2159      F2166   1.358       .  S
C2160      C2161   1.403       .  A
C2160      H2165   1.083   1_455  S
C2161      C2162   1.411       .  A
C2162      F2163   1.358       .  S
C2167      C2168   1.402       .  A
C2167      C2172   1.400       .  A
C2167      H2174   1.083       .  S
C2168      C2169   1.405       .  A
C2169      C2170   1.404       .  A
C2169      F2176   1.357       .  S
C2170      C2171   1.408       .  A
C2170      H2175   1.083       .  S
C2171      C2172   1.409       .  A
C2172      F2173   1.358       .  S
