geometry optimzed in LAMMPS
_audit_creation_date              2020-11-30 
_audit_creation_method            'lammps2cif' 
_symmetry_space_group_name_H-M    'P1' 
_symmetry_Int_Tables_number       1 
_symmetry_cell_setting            triclinic 
loop_ 
_symmetry_equiv_pos_as_xyz 
  x,y,z 
_cell_length_a                    40.56073306 
_cell_length_b                    41.161622795578026 
_cell_length_c                    34.63482376293641 
_cell_angle_alpha                 89.61337089305862 
_cell_angle_beta                  89.87286374365335 
_cell_angle_gamma                 90.15422437725718 
loop_ 
_atom_site_label 
_atom_site_type_symbol 
_atom_site_fract_x 
_atom_site_fract_y 
_atom_site_fract_z 
_atom_site_charge 
C1          C  0.30998728  0.25021220  0.05233131    -0.02300
C2          C  0.74163766  0.31773943  0.46775337    -0.02300
C3          C  0.23629826  0.68582563  0.42528841    -0.02300
O4          O  0.52912471  0.47950690  0.43391274    -0.57600
C5          C  0.43425882  0.54228679  0.44155581     0.75000
O6          O  0.45240325  0.47543787  0.02728147    -0.58800
C7          C  0.54342798  0.46632948  0.46278806     0.75000
C8          C  0.52186481  0.56216318  0.00911524     0.77400
Cd9        Cd  0.48695410  0.50685753  0.47685860     1.37500
O10         O  0.45792706  0.53224651  0.42054131    -0.57600
O11         O  0.51748112  0.55678203  0.47036819    -0.56400
C12         C  0.44397869  0.45463404  0.00201816     0.77300
O13         O  0.50905437  0.54208511  0.03302892    -0.58800
O14         O  0.43935474  0.54328200  0.98421109    -0.57300
O15         O  0.52970791  0.47223701  0.00018873    -0.57300
O16         O  0.45778490  0.45636990  0.46813355    -0.56400
C17         C  0.73428095  0.18608672  0.21843321    -0.02300
C18         C  0.67361669  0.75156440  0.05551083    -0.02300
C19         C  0.80734363  0.74430107  0.30557667    -0.02300
O20         O  0.94902011  0.02932998  0.19854715    -0.57600
C21         C  0.04224961  0.96500091  0.20590714     0.75000
O22         O  0.01992932  0.03043631  0.28775749    -0.58800
C23         C  0.93012855  0.03596961  0.22690119     0.75000
C24         C  0.95650550  0.93745694  0.26162188     0.77400
Cd25       Cd  0.98794381  0.99764757  0.23973651     1.37500
O26         O  0.01794666  0.97265757  0.18439217    -0.57600
O27         O  0.95939795  0.94748883  0.22705868    -0.56400
C28         C  0.02706899  0.05246222  0.26293079     0.77300
O29         O  0.96823696  0.95585217  0.28780759    -0.58800
O30         O  0.04101718  0.97343494  0.24097905    -0.57300
O31         O  0.93767032  0.02382710  0.25947145    -0.57300
O32         O  0.01577469  0.04867083  0.22911628    -0.56400
C33         C  0.23755066  0.81831825  0.17525718    -0.02300
O34         O  0.45503022  0.97376883  0.17241913    -0.57600
C35         C  0.54189947  0.03946023  0.16364076     0.75000
O36         O  0.52214558  0.96946113  0.07747075    -0.58800
C37         C  0.43362492  0.96728999  0.14677991     0.75000
C38         C  0.46048729  0.05940088  0.09313039     0.77400
Cd39       Cd  0.49154827  0.00318258  0.12579624     1.37500
O40         O  0.51579542  0.03191412  0.18208637    -0.57600
O41         O  0.46581714  0.05543977  0.12883071    -0.56400
C42         C  0.53014594  0.94805042  0.10248416     0.77300
O43         O  0.47013465  0.03690802  0.07070019    -0.58800
O44         O  0.54451993  0.02936195  0.12931881    -0.57300
O45         O  0.43885934  0.97849459  0.11320429    -0.57300
O46         O  0.52036427  0.95281607  0.13672819    -0.56400
C47         C  0.17367268  0.24892049  0.30342846    -0.02300
O48         O  0.95708209  0.47715099  0.45075259    -0.57600
C49         C  0.03812996  0.54070351  0.41345327     0.75000
O50         O  0.00607328  0.45400271  0.34239065    -0.58800
C51         C  0.94366180  0.45316965  0.43398119     0.75000
C52         C  0.94499398  0.54455102  0.36395685     0.77400
Cd53       Cd  0.98911166  0.49432894  0.39219291     1.37500
O54         O  0.02719797  0.52096503  0.43895287    -0.57600
O55         O  0.94820423  0.53639693  0.39901105    -0.56400
C56         C  0.03167444  0.44477129  0.36056844     0.77300
O57         O  0.96062982  0.52732736  0.33959692    -0.58800
O58         O  0.02683882  0.53779024  0.37959643    -0.57300
O59         O  0.95244129  0.44783103  0.39957627    -0.57300
O60         O  0.03826376  0.45954370  0.39158004    -0.56400
C61         C  0.04231843  0.32873174  0.32828535    -0.17700
C62         C  0.06189385  0.30132436  0.32189669    -0.19800
C63         C  0.09636863  0.30414283  0.31940163     0.20800
C64         C  0.11124193  0.33484681  0.32358477    -0.02700
C65         C  0.09152424  0.36246424  0.33107379    -0.05800
C66         C  0.05686277  0.35941023  0.33304215     0.21100
C67         C  0.10651750  0.39296699  0.33726569     0.19300
C68         C  0.14099807  0.39568255  0.33493535    -0.17300
C69         C  0.16042491  0.36845408  0.32668836    -0.19500
C70         C  0.14581075  0.33785862  0.32119165     0.20800
C71         C  0.16519075  0.31024494  0.31378375    -0.32500
C72         C  0.15081969  0.27910859  0.30903935     0.01400
C73         C  0.11607778  0.27662388  0.31341901    -0.23900
C74         C  0.03742482  0.38691676  0.34055074    -0.28400
C75         C  0.05221898  0.41718869  0.34767862     0.07100
C76         C  0.08679464  0.42000888  0.34627960    -0.27100
H77         H  0.01579218  0.32585387  0.32997679     0.11800
H78         H  0.05001610  0.27788223  0.31874578     0.13000
H79         H  0.15297203  0.41889297  0.33952323     0.12000
H80         H  0.18695701  0.37127470  0.32502425     0.11300
H81         H  0.19175757  0.31281154  0.31202272     0.16700
H82         H  0.10379146  0.25334940  0.31339045     0.12600
H83         H  0.01084242  0.38452156  0.34256090     0.15400
H84         H  0.09826613  0.44325844  0.35223330     0.15200
C85         C  0.29583589  0.91099126  0.11224213    -0.17700
C86         C  0.32206601  0.93297404  0.10983608    -0.19800
C87         C  0.34965353  0.92933495  0.13380727     0.20800
C88         C  0.35083037  0.90340432  0.16060531    -0.02700
C89         C  0.32429849  0.88118382  0.16299449    -0.05800
C90         C  0.29675383  0.88506250  0.13870471     0.21100
C91         C  0.32542360  0.85504555  0.18946424     0.19300
C92         C  0.35333292  0.85112922  0.21297923    -0.17300
C93         C  0.37963753  0.87320870  0.21070294    -0.19500
C94         C  0.37859837  0.89952131  0.18472703     0.20800
C95         C  0.40506250  0.92159005  0.18176570    -0.32500
C96         C  0.40427526  0.94692873  0.15434976     0.01400
C97         C  0.37636322  0.95079491  0.13081720    -0.23900
C98         C  0.27021660  0.86342826  0.14178621    -0.28400
C99         C  0.26960563  0.83864801  0.17023264     0.07100
C100        C  0.29844919  0.83362984  0.19243345    -0.27100
H101        H  0.27474300  0.91435679  0.09350350     0.11800
H102        H  0.32082519  0.95277124  0.08911273     0.13000
H103        H  0.35469893  0.83113100  0.23340997     0.12000
H104        H  0.40082917  0.86966501  0.22923321     0.11300
H105        H  0.42677788  0.91825049  0.19953366     0.16700
H106        H  0.37570235  0.97027665  0.10959236     0.12600
H107        H  0.24895959  0.86693149  0.12332547     0.15400
H108        H  0.30011274  0.81333010  0.21230724     0.15200
C109        C  0.11618887  0.10797992  0.33649187    -0.17700
C110        C  0.13744826  0.13462581  0.34118218    -0.19800
C111        C  0.13524617  0.16193637  0.31671018     0.20800
C112        C  0.11158556  0.16211465  0.28698445    -0.02700
C113        C  0.09001056  0.13530763  0.28234492    -0.05800
C114        C  0.09225229  0.10805991  0.30723266     0.21100
C115        C  0.06637793  0.13572323  0.25255741     0.19300
C116        C  0.06436541  0.16278256  0.22782153    -0.17300
C117        C  0.08589493  0.18908116  0.23219291    -0.19500
C118        C  0.10962668  0.18894094  0.26160674     0.20800
C119        C  0.13097552  0.21547203  0.26636143    -0.32500
C120        C  0.15310797  0.21712899  0.29783041     0.01400
C121        C  0.15602299  0.18911855  0.32171908    -0.23900
C122        C  0.07090619  0.08128711  0.30195353    -0.28400
C123        C  0.04771780  0.08137863  0.27172289     0.07100
C124        C  0.04551335  0.10889176  0.24750168    -0.27100
H125        H  0.11848819  0.08728702  0.35578634     0.11800
H126        H  0.15554463  0.13392445  0.36413290     0.13000
H127        H  0.04627298  0.16350955  0.20486224     0.12000
H128        H  0.08387646  0.20963261  0.21263377     0.11300
H129        H  0.12918741  0.23596780  0.24665283     0.16700
H130        H  0.17441312  0.18798195  0.34419573     0.12600
H131        H  0.07298745  0.06010129  0.32053387     0.15400
H132        H  0.02767381  0.10928872  0.22423057     0.15200
C133        C  0.08982153  0.86187903  0.16173280    -0.17700
C134        C  0.11647960  0.84026606  0.16207965    -0.19800
C135        C  0.14784512  0.85064862  0.17400308     0.20800
C136        C  0.15237085  0.88311725  0.18551678    -0.02700
C137        C  0.12534008  0.90463659  0.18631244    -0.05800
C138        C  0.09387857  0.89404344  0.17419611     0.21100
C139        C  0.12965562  0.93647613  0.20029894     0.19300
C140        C  0.16090134  0.94677015  0.21250213    -0.17300
C141        C  0.18780930  0.92574788  0.21063105    -0.19500
C142        C  0.18378262  0.89395204  0.19706647     0.20800
C143        C  0.21079432  0.87303390  0.19444734    -0.32500
C144        C  0.20724791  0.84097765  0.18047585     0.01400
C145        C  0.17486946  0.82934075  0.17403037    -0.23900
C146        C  0.06684079  0.91532310  0.17665549    -0.28400
C147        C  0.07090731  0.94643086  0.19246786     0.07100
C148        C  0.10239374  0.95701342  0.20349036    -0.27100
H149        H  0.06587845  0.85324550  0.15245177     0.11800
H150        H  0.11261624  0.81548223  0.15273048     0.13000
H151        H  0.16451846  0.97108064  0.22356232     0.12000
H152        H  0.21177478  0.93433777  0.21991251     0.11300
H153        H  0.23465077  0.88199792  0.20348519     0.16700
H154        H  0.17108863  0.80411929  0.16637337     0.12600
H155        H  0.04234449  0.90688239  0.16917103     0.15400
H156        H  0.10532876  0.98084465  0.21625182     0.15200
C157        C  0.87783330  0.81393943  0.21930181    -0.17700
C158        C  0.89884237  0.84045975  0.21330504    -0.19800
C159        C  0.91026979  0.85865032  0.24469957     0.20800
C160        C  0.90170024  0.84916938  0.28260405    -0.02700
C161        C  0.88065739  0.82212917  0.28864143    -0.05800
C162        C  0.86802075  0.80508882  0.25679705     0.21100
C163        C  0.87203156  0.81234119  0.32639625     0.19300
C164        C  0.88503761  0.82946875  0.35789680    -0.17300
C165        C  0.90529066  0.85678035  0.35192351    -0.19500
C166        C  0.91343781  0.86715702  0.31434187     0.20800
C167        C  0.93231574  0.89555924  0.30780064    -0.32500
C168        C  0.93959625  0.90598455  0.26986351     0.01400
C169        C  0.92927128  0.88669410  0.23865851    -0.23900
C170        C  0.84512827  0.78002133  0.26273586    -0.28400
C171        C  0.83354646  0.77176711  0.30017271     0.07100
C172        C  0.84996279  0.78617249  0.33188289    -0.27100
H173        H  0.86865877  0.80079800  0.19452077     0.11800
H174        H  0.90549834  0.84723234  0.18401726     0.13000
H175        H  0.87880495  0.82229196  0.38717402     0.12000
H176        H  0.91423760  0.87003507  0.37672103     0.11300
H177        H  0.94049843  0.90995210  0.33206646     0.16700
H178        H  0.93515729  0.89404637  0.20932146     0.12600
H179        H  0.83614535  0.76711410  0.23772409     0.15400
H180        H  0.84464687  0.77791717  0.36098461     0.15200
C181        C  0.88067913  0.63945165  0.40592258    -0.17700
C182        C  0.86198880  0.66716372  0.39801226    -0.19800
C183        C  0.85583003  0.67669948  0.35973807     0.20800
C184        C  0.86934376  0.65865976  0.32916950    -0.02700
C185        C  0.88814540  0.63045922  0.33713613    -0.05800
C186        C  0.89350013  0.62074836  0.37569979     0.21100
C187        C  0.90155618  0.61205506  0.30663225     0.19300
C188        C  0.89651159  0.62260937  0.26841815    -0.17300
C189        C  0.87834967  0.65090844  0.26058890    -0.19500
C190        C  0.86442744  0.66901331  0.29077014     0.20800
C191        C  0.84555521  0.69710271  0.28326988    -0.32500
C192        C  0.82873663  0.71345726  0.31334189     0.01400
C193        C  0.83618834  0.70386220  0.35173233    -0.23900
C194        C  0.91161211  0.59255418  0.38354897    -0.28400
C195        C  0.92480913  0.57357100  0.35354148     0.07100
C196        C  0.91982656  0.58364229  0.31498752    -0.27100
H197        H  0.88487395  0.63248528  0.43573231     0.11800
H198        H  0.85205658  0.68096770  0.42187669     0.13000
H199        H  0.90665101  0.60899012  0.24453691     0.12000
H200        H  0.87484264  0.65840909  0.23083980     0.11300
H201        H  0.84343966  0.70578079  0.25380957     0.16700
H202        H  0.82691697  0.71768240  0.37589872     0.12600
H203        H  0.91561689  0.58552266  0.41338941     0.15400
H204        H  0.93023337  0.56955361  0.29164447     0.15200
C205        C  0.75946159  0.68823152  0.18766419    -0.17700
C206        C  0.74426865  0.69021925  0.15127959    -0.19800
C207        C  0.73148779  0.71982788  0.13757422     0.20800
C208        C  0.73464730  0.74771767  0.16076483    -0.02700
C209        C  0.75050077  0.74584169  0.19722532    -0.05800
C210        C  0.76279941  0.71593037  0.21092116     0.21100
C211        C  0.75374211  0.77387408  0.22006744     0.19300
C212        C  0.74144438  0.80359342  0.20624177    -0.17300
C213        C  0.72582294  0.80543884  0.17029209    -0.19500
C214        C  0.72201760  0.77756241  0.14753276     0.20800
C215        C  0.70484024  0.77897403  0.11241771    -0.32500
C216        C  0.69801776  0.75059504  0.09064224     0.01400
C217        C  0.71457596  0.72180354  0.10189886    -0.23900
C218        C  0.77878605  0.71435361  0.24713347    -0.28400
C219        C  0.78474662  0.74280631  0.26896967     0.07100
C220        C  0.76999196  0.77200375  0.25582829    -0.27100
H221        H  0.76887645  0.66500400  0.19747949     0.11800
H222        H  0.74204747  0.66842287  0.13411276     0.13000
H223        H  0.74393698  0.82546598  0.22323478     0.12000
H224        H  0.71629313  0.82864061  0.16052122     0.11300
H225        H  0.69596014  0.80243918  0.10282034     0.16700
H226        H  0.71229338  0.70029252  0.08423173     0.12600
H227        H  0.78676802  0.69092221  0.25772794     0.15400
H228        H  0.77292880  0.79391621  0.27269083     0.15200
C229        C  0.71321268  0.69436243  0.43582265    -0.17700
C230        C  0.72892335  0.69471276  0.39981602    -0.19800
C231        C  0.74545460  0.72268041  0.38668247     0.20800
C232        C  0.74563396  0.75072965  0.40980836    -0.02700
C233        C  0.72955594  0.75042609  0.44625427    -0.05800
C234        C  0.71347064  0.72206568  0.45927476     0.21100
C235        C  0.73005105  0.77822937  0.46986395     0.19300
C236        C  0.74610839  0.80638269  0.45624843    -0.17300
C237        C  0.76172631  0.80680257  0.41996567    -0.19500
C238        C  0.76205269  0.77893595  0.39666928     0.20800
C239        C  0.77945616  0.77840877  0.36125361    -0.32500
C240        C  0.78264562  0.74926873  0.33989259     0.01400
C241        C  0.76300789  0.72248336  0.35165933    -0.23900
C242        C  0.69651407  0.72248916  0.99435858    -0.28400
C243        C  0.69512793  0.75068791  0.01778134     0.07100
C244        C  0.71394062  0.77756987  0.50616671    -0.27100
H245        H  0.69823613  0.67340798  0.94376396     0.11800
H246        H  0.72857108  0.67289949  0.38248097     0.13000
H247        H  0.74655967  0.82814876  0.47365199     0.12000
H248        H  0.77412533  0.82879546  0.41045302     0.11300
H249        H  0.79105033  0.80056796  0.35118085     0.16700
H250        H  0.76354843  0.70038884  0.33480154     0.12600
H251        H  0.68472612  0.70014101  0.00357876     0.15400
H252        H  0.71443370  0.79900430  0.52415361     0.15200
C253        C  0.57671535  0.84280755  0.14314071    -0.17700
C254        C  0.59610708  0.81548281  0.13609428    -0.19800
C255        C  0.61232039  0.81193246  0.10055376     0.20800
C256        C  0.60864830  0.83579270  0.07160632    -0.02700
C257        C  0.58865228  0.86325640  0.07851924    -0.05800
C258        C  0.57294940  0.86685791  0.11460685     0.21100
C259        C  0.58456551  0.88715570  0.04950121     0.19300
C260        C  0.60028586  0.88306103  0.01368773    -0.17300
C261        C  0.62022849  0.85587497  0.00691637    -0.19500
C262        C  0.62488626  0.83221580  0.03582367     0.20800
C263        C  0.64562363  0.80525961  0.02966929    -0.32500
C264        C  0.65086216  0.78190429  0.05923016     0.01400
C265        C  0.63249296  0.78508890  0.09383491    -0.23900
C266        C  0.55388219  0.89449813  0.12170984    -0.28400
C267        C  0.54986851  0.91873353  0.09321884     0.07100
C268        C  0.56505720  0.91473633  0.05695776    -0.27100
H269        H  0.56472726  0.84517296  0.17096843     0.11800
H270        H  0.59873994  0.79729241  0.15863494     0.13000
H271        H  0.59736775  0.90103333  0.99096507     0.12000
H272        H  0.63227772  0.85352142  0.97913172     0.11300
H273        H  0.65688267  0.80247817  0.00161055     0.16700
H274        H  0.63490677  0.76678130  0.11631294     0.12600
H275        H  0.54214821  0.89712656  0.14966951     0.15400
H276        H  0.56208470  0.93322347  0.03482020     0.15200
C277        C  0.68660025  0.07571264  0.19143579    -0.17700
C278        C  0.65978810  0.05517156  0.18503284    -0.19800
C279        C  0.62754897  0.06711596  0.18748772     0.20800
C280        C  0.62216302  0.09996545  0.19710573    -0.02700
C281        C  0.64934942  0.12079791  0.20326528    -0.05800
C282        C  0.68159988  0.10854451  0.20032178     0.21100
C283        C  0.64430928  0.15401118  0.21092595     0.19300
C284        C  0.61194192  0.16594344  0.21324943    -0.17300
C285        C  0.58489261  0.14520089  0.20764529    -0.19500
C286        C  0.58971943  0.11220290  0.19924016     0.20800
C287        C  0.56290893  0.09148899  0.19131629    -0.32500
C288        C  0.56849103  0.05914765  0.18026934     0.01400
C289        C  0.60070996  0.04706615  0.17890089    -0.23900
C290        C  0.70850855  0.12928794  0.20545206    -0.28400
C291        C  0.70431895  0.16250677  0.21472154     0.07100
C292        C  0.67169759  0.17470330  0.21562619    -0.27100
H293        H  0.71131115  0.06597082  0.18904820     0.11800
H294        H  0.66428522  0.03002698  0.17764764     0.13000
H295        H  0.60753895  0.19137550  0.21919308     0.12000
H296        H  0.56020584  0.15509836  0.20923004     0.11300
H297        H  0.53798742  0.10095369  0.19140101     0.16700
H298        H  0.60487955  0.02223507  0.16982368     0.12600
H299        H  0.73269943  0.11927595  0.20034612     0.15400
H300        H  0.66775439  0.20040051  0.22041813     0.15200
C301        C  0.82371402  0.07362286  0.27824667    -0.17700
C302        C  0.79792481  0.09607598  0.27890201    -0.19800
C303        C  0.79692659  0.12162775  0.25192907     0.20800
C304        C  0.82222220  0.12470715  0.22415814    -0.02700
C305        C  0.84842857  0.10214814  0.22362612    -0.05800
C306        C  0.84906999  0.07648773  0.25079266     0.21100
C307        C  0.87396015  0.10529679  0.19602335     0.19300
C308        C  0.87319947  0.13131206  0.16959702    -0.17300
C309        C  0.84714194  0.15359735  0.17006466    -0.19500
C310        C  0.82131883  0.15025644  0.19691371     0.20800
C311        C  0.79421599  0.17144422  0.19623417    -0.32500
C312        C  0.76717326  0.16685356  0.22169135     0.01400
C313        C  0.77043574  0.14340071  0.25145146    -0.23900
C314        C  0.87531214  0.05442910  0.25050910    -0.28400
C315        C  0.90102165  0.05744404  0.22338969     0.07100
C316        C  0.89999123  0.08269939  0.19582189    -0.27100
H317        H  0.82386142  0.05402694  0.29929181     0.11800
H318        H  0.77854524  0.09323290  0.30025308     0.13000
H319        H  0.89269315  0.13434908  0.14843267     0.12000
H320        H  0.84696413  0.17321173  0.14904204     0.11300
H321        H  0.79430261  0.19106707  0.17533442     0.16700
H322        H  0.75076682  0.14047504  0.27245380     0.12600
H323        H  0.87598095  0.03505229  0.27185947     0.15400
H324        H  0.91997821  0.08543157  0.17521360     0.15200
C325        C  0.61886987  0.64722092  0.10398731    -0.17700
C326        C  0.59764177  0.62087933  0.09724728    -0.19800
C327        C  0.57823664  0.61983436  0.06372724     0.20800
C328        C  0.57986271  0.64597567  0.03716466    -0.02700
C329        C  0.60138136  0.67239228  0.04388426    -0.05800
C330        C  0.62128681  0.67295886  0.07721908     0.21100
C331        C  0.60321535  0.69803387  0.01691074     0.19300
C332        C  0.58312328  0.69770564  0.98400774    -0.17300
C333        C  0.56196840  0.67158038  0.97725108    -0.19500
C334        C  0.56055538  0.64542460  0.00333936     0.20800
C335        C  0.54086956  0.61834315  0.99553246    -0.32500
C336        C  0.53995887  0.59164910  0.02100987     0.01400
C337        C  0.55795400  0.59284453  0.05566870    -0.23900
C338        C  0.64360887  0.69887515  0.08283452    -0.28400
C339        C  0.64765953  0.72346164  0.05433710     0.07100
C340        C  0.62575686  0.72321151  0.02252299    -0.27100
H341        H  0.63386894  0.64715620  0.12983198     0.11800
H342        H  0.59673653  0.60110790  0.11803220     0.13000
H343        H  0.58421954  0.71739427  0.96310856     0.12000
H344        H  0.54712505  0.67157453  0.95127401     0.11300
H345        H  0.52665952  0.61774061  0.96904851     0.16700
H346        H  0.55728119  0.57230030  0.07539926     0.12600
H347        H  0.65732064  0.69950777  0.10945318     0.15400
H348        H  0.62737635  0.74234804  0.00093088     0.15200
C349        C  0.27891353  0.70910629  0.05938592    -0.17700
C350        C  0.27978158  0.72774514  0.09301121    -0.19800
C351        C  0.25815732  0.75398635  0.09766632     0.20800
C352        C  0.23534663  0.76131873  0.06822808    -0.02700
C353        C  0.23471262  0.74271477  0.03405997    -0.05800
C354        C  0.25670421  0.71664935  0.02959710     0.21100
C355        C  0.21205631  0.75016220  0.00447885     0.19300
C356        C  0.19018848  0.77618494  0.00934555    -0.17300
C357        C  0.19116349  0.79492807  0.04291590    -0.19500
C358        C  0.21364013  0.78764330  0.07252641     0.20800
C359        C  0.21473702  0.80632304  0.10623545    -0.32500
C360        C  0.23585617  0.79808692  0.13739639     0.01400
C361        C  0.25886002  0.77285054  0.13130901    -0.23900
C362        C  0.25645722  0.69871698  0.99534811    -0.28400
C363        C  0.23756241  0.70603225  0.46311081     0.07100
C364        C  0.21383335  0.73059818  0.46918046    -0.27100
H365        H  0.29594302  0.68902922  0.05646479     0.11800
H366        H  0.29734835  0.72159888  0.11540503     0.13000
H367        H  0.17259872  0.78231234  0.98697099     0.12000
H368        H  0.17419547  0.81505874  0.04580006     0.11300
H369        H  0.19950118  0.82777900  0.10727856     0.16700
H370        H  0.27695499  0.76746322  0.15341601     0.12600
H371        H  0.27246995  0.67782417  0.99383389     0.15400
H372        H  0.19591218  0.73576531  0.44680424     0.15200
C373        C  0.22803182  0.69365529  0.28188026    -0.17700
C374        C  0.22635941  0.71168536  0.24754027    -0.19800
C375        C  0.23185271  0.74537344  0.24766384     0.20800
C376        C  0.23889035  0.76097943  0.28283774    -0.02700
C377        C  0.23987214  0.74286787  0.31766986    -0.05800
C378        C  0.23461370  0.70907447  0.31707552     0.21100
C379        C  0.24607883  0.75858626  0.35300881     0.19300
C380        C  0.25199580  0.79220917  0.35304959    -0.17300
C381        C  0.25122603  0.81010342  0.31853267    -0.19500
C382        C  0.24450034  0.79471498  0.28333243     0.20800
C383        C  0.24350584  0.81249659  0.24866421    -0.32500
C384        C  0.23776820  0.79722745  0.21272250     0.01400
C385        C  0.23044411  0.76358855  0.21321817    -0.23900
C386        C  0.23527630  0.69133377  0.35172873    -0.28400
C387        C  0.23878095  0.70689939  0.38786548     0.07100
C388        C  0.24579752  0.74059568  0.38770767    -0.27100
H389        H  0.22375677  0.66767571  0.28097376     0.11800
H390        H  0.22097236  0.69922353  0.22081921     0.13000
H391        H  0.25695592  0.80473814  0.37983830     0.12000
H392        H  0.25576608  0.83604086  0.31939804     0.11300
H393        H  0.24804339  0.83841534  0.24950146     0.16700
H394        H  0.22318700  0.75126555  0.18712535     0.12600
H395        H  0.23126394  0.66529099  0.35095295     0.15400
H396        H  0.25131680  0.75310188  0.41426118     0.15200
C397        C  0.35820585  0.67018375  0.42159015    -0.17700
C398        C  0.38617799  0.65034589  0.42231469    -0.19800
C399        C  0.38295475  0.61639205  0.42154739     0.20800
C400        C  0.35122538  0.60235201  0.41896545    -0.02700
C401        C  0.32299605  0.62242616  0.41825104    -0.05800
C402        C  0.32652942  0.65642044  0.42012925     0.21100
C403        C  0.29127223  0.60843388  0.41644682     0.19300
C404        C  0.29086314  0.57871160  0.91030914    -0.17300
C405        C  0.31916387  0.55942402  0.91248259    -0.19500
C406        C  0.34761310  0.56823316  0.41863246     0.20800
C407        C  0.37555034  0.54842474  0.42282355    -0.32500
C408        C  0.40700836  0.56229685  0.42678341     0.01400
C409        C  0.41070105  0.59621703  0.42517305    -0.23900
C410        C  0.29837782  0.67606196  0.42156568    -0.28400
C411        C  0.26626859  0.66248676  0.42207698     0.07100
C412        C  0.26326939  0.62845525  0.41740490    -0.27100
H413        H  0.36133498  0.69630474  0.42291171     0.11800
H414        H  0.41031279  0.66155245  0.42427344     0.13000
H415        H  0.26727385  0.56714747  0.90510155     0.12000
H416        H  0.31683390  0.53339007  0.90890586     0.11300
H417        H  0.37612634  0.52786187  0.92270286     0.16700
H418        H  0.43491476  0.60687702  0.42927237     0.12600
H419        H  0.30132560  0.70218297  0.42358723     0.15400
H420        H  0.23938698  0.61711272  0.41438702     0.15200
C421        C  0.13527769  0.58128807  0.48536976    -0.17700
C422        C  0.16305316  0.60159772  0.48659086    -0.19800
C423        C  0.16775391  0.62595612  0.45849658     0.20800
C424        C  0.14352955  0.63077851  0.42995990    -0.02700
C425        C  0.11559885  0.61028545  0.42861873    -0.05800
C426        C  0.11174933  0.58495122  0.45599469     0.21100
C427        C  0.09215398  0.61446324  0.39902006     0.19300
C428        C  0.09577901  0.64001632  0.37234556    -0.17300
C429        C  0.12315367  0.66058802  0.37407962    -0.19500
C430        C  0.14752579  0.65562952  0.40218940     0.20800
C431        C  0.17624650  0.67450901  0.40208201    -0.32500
C432        C  0.20261665  0.66763113  0.42758689     0.01400
C433        C  0.19676466  0.64472087  0.45753585    -0.23900
C434        C  0.08520732  0.56305371  0.45251534    -0.28400
C435        C  0.06306758  0.56597224  0.42151141     0.07100
C436        C  0.06615294  0.59232224  0.39568503    -0.27100
H437        H  0.13264144  0.56218249  0.50683192     0.11800
H438        H  0.18420992  0.59426780  0.00459752     0.13000
H439        H  0.07779881  0.64367349  0.34964258     0.12000
H440        H  0.12578625  0.67973622  0.35265657     0.11300
H441        H  0.17773840  0.69431784  0.38152910     0.16700
H442        H  0.21569176  0.64041545  0.47900014     0.11800
H443        H  0.08278303  0.54289534  0.47262885     0.15400
H444        H  0.04877470  0.59506949  0.37213903     0.15200
C445        C  0.74363890  0.21030209  0.03977583    -0.17700
C446        C  0.74113823  0.19251454  0.07431194    -0.19800
C447        C  0.73712889  0.20848022  0.10973274     0.20800
C448        C  0.73535323  0.24259908  0.11031863    -0.02700
C449        C  0.73822131  0.26057343  0.07549481    -0.05800
C450        C  0.74224981  0.24440275  0.04000980     0.21100
C451        C  0.73739992  0.29472700  0.07631182     0.19300
C452        C  0.73274588  0.31066754  0.11160052    -0.17300
C453        C  0.72912111  0.29286903  0.14590784    -0.19500
C454        C  0.73081178  0.25882428  0.14567968     0.20800
C455        C  0.72871239  0.24092251  0.18030789    -0.32500
C456        C  0.73309198  0.20684974  0.18071131     0.01400
C457        C  0.73569515  0.19095989  0.14460315    -0.23900
C458        C  0.74552759  0.26224869  0.50551735    -0.28400
C459        C  0.74216414  0.29650243  0.50525227     0.07100
C460        C  0.74045733  0.31243713  0.04179654    -0.27100
H461        H  0.74664824  0.19736386  0.01286201     0.11800
H462        H  0.74251598  0.16624757  0.07332983     0.13000
H463        H  0.73168263  0.33694689  0.11264042     0.12000
H464        H  0.72555583  0.30579051  0.17274172     0.11300
H465        H  0.72399664  0.25396363  0.20669762     0.16700
H466        H  0.73795103  0.16474782  0.14386370     0.12600
H467        H  0.75015417  0.24924316  0.47906924     0.15400
H468        H  0.73971461  0.33874542  0.04282714     0.15200
C469        C  0.78477535  0.27182894  0.30143495    -0.17700
C470        C  0.78610460  0.28997616  0.33543628    -0.19800
C471        C  0.76284171  0.28485998  0.36498614     0.20800
C472        C  0.73786933  0.26145251  0.36002378    -0.02700
C473        C  0.73636033  0.24328719  0.32547747    -0.05800
C474        C  0.75999597  0.24841169  0.29618472     0.21100
C475        C  0.71146346  0.21977226  0.32050705     0.19300
C476        C  0.68812285  0.21479962  0.35002469    -0.17300
C477        C  0.68939600  0.23304045  0.38401268    -0.19500
C478        C  0.71424545  0.25637642  0.38936639     0.20800
C479        C  0.71588737  0.27459076  0.42354988    -0.32500
C480        C  0.74153377  0.29731807  0.42991321     0.01400
C481        C  0.76415981  0.30290312  0.39922232    -0.23900
C482        C  0.75857406  0.23004036  0.26219939    -0.28400
C483        C  0.73331218  0.20684967  0.25596211     0.07100
C484        C  0.71040940  0.20142926  0.28636968    -0.27100
H485        H  0.80313319  0.27615189  0.27919931     0.11800
H486        H  0.80549077  0.30790467  0.33871299     0.13000
H487        H  0.66876464  0.19684224  0.34677783     0.12000
H488        H  0.67101945  0.22874690  0.40623132     0.11300
H489        H  0.69728129  0.27090483  0.44567883     0.16700
H490        H  0.78247536  0.32192395  0.40089981     0.12600
H491        H  0.77723411  0.23381768  0.24014882     0.15400
H492        H  0.69219544  0.18233549  0.28457486     0.15200
C493        C  0.63264639  0.35531183  0.52073488    -0.17700
C494        C  0.60603504  0.37670897  0.52045542    -0.19800
C495        C  0.60228352  0.39918569  0.49020180     0.20800
C496        C  0.62560284  0.40033646  0.46000086    -0.02700
C497        C  0.65314355  0.37933283  0.46097866    -0.05800
C498        C  0.65639102  0.35657216  0.49125733     0.21100
C499        C  0.67724118  0.38096491  0.43169295     0.19300
C500        C  0.67298531  0.40301897  0.40092993    -0.17300
C501        C  0.64528061  0.42342705  0.39949241    -0.19500
C502        C  0.62149417  0.42253352  0.42908063     0.20800
C503        C  0.59397852  0.44360034  0.42877230    -0.32500
C504        C  0.57128217  0.44313257  0.45967241     0.01400
C505        C  0.57566045  0.42064034  0.48995367    -0.23900
C506        C  0.68336245  0.33549259  0.49196978    -0.28400
C507        C  0.70959533  0.33865159  0.46516209     0.07100
C508        C  0.70530144  0.36088678  0.43407096    -0.27100
H509        H  0.63494144  0.33810016  0.54438700     0.11800
H510        H  0.58632460  0.37344600  0.04593825     0.13000
H511        H  0.69114078  0.40455347  0.37799433     0.12000
H512        H  0.64268001  0.44019811  0.37545935     0.11300
H513        H  0.59082051  0.46090042  0.40535601     0.16700
H514        H  0.55811771  0.41977570  0.51362324     0.12600
H515        H  0.68331368  0.31669875  0.51382710     0.15400
H516        H  0.72425601  0.36290177  0.41207514     0.15200
C517        C  0.89290558  0.34601516  0.45735668    -0.17700
C518        C  0.86432583  0.32727744  0.46238453    -0.19800
C519        C  0.83369908  0.34229032  0.46834732     0.20800
C520        C  0.83212000  0.37637796  0.47120193    -0.02700
C521        C  0.86112832  0.39526054  0.46738984    -0.05800
C522        C  0.89145937  0.38004896  0.45909585     0.21100
C523        C  0.85947779  0.42944127  0.47002435     0.19300
C524        C  0.82904138  0.44430338  0.47744933    -0.17300
C525        C  0.80026326  0.42561662  0.48057834    -0.19500
C526        C  0.80144238  0.39170457  0.47665419     0.20800
C527        C  0.77235732  0.37308925  0.47676099    -0.32500
C528        C  0.77323143  0.33908626  0.47093607     0.01400
C529        C  0.80451284  0.32391272  0.46980760    -0.23900
C530        C  0.91932725  0.39921994  0.45074794    -0.28400
C531        C  0.91744444  0.43329459  0.45187065     0.07100
C532        C  0.88788308  0.44821631  0.46307083    -0.27100
H533        H  0.91602680  0.33391109  0.45135165     0.11800
H534        H  0.86599759  0.30108454  0.46022615     0.13000
H535        H  0.82731777  0.47049090  0.47962901     0.12000
H536        H  0.77693969  0.43779231  0.48513417     0.11300
H537        H  0.74921410  0.38546296  0.48127404     0.16700
H538        H  0.80587073  0.29770332  0.46734726     0.12600
H539        H  0.94212126  0.38776419  0.44180446     0.15400
H540        H  0.88632575  0.47451482  0.46322224     0.15200
C541        C  0.22422915  0.30041776  0.14040229    -0.17700
C542        C  0.20639458  0.30113105  0.17519643    -0.19800
C543        C  0.21039510  0.27658003  0.20322906     0.20800
C544        C  0.23311042  0.25145654  0.19620611    -0.02700
C545        C  0.25133767  0.25090989  0.16113529    -0.05800
C546        C  0.24662927  0.27523919  0.13288722     0.21100
C547        C  0.27370424  0.22559223  0.15405909     0.19300
C548        C  0.27794522  0.20111920  0.18210530    -0.17300
C549        C  0.25979837  0.20150974  0.21654586    -0.19500
C550        C  0.23709480  0.22643350  0.22375873     0.20800
C551        C  0.21804042  0.22639431  0.25776203    -0.32500
C552        C  0.19532789  0.25155076  0.26594200     0.01400
C553        C  0.19162773  0.27644261  0.23766258    -0.23900
C554        C  0.26435692  0.27405521  0.09774116    -0.28400
C555        C  0.28835952  0.24974603  0.09050583     0.07100
C556        C  0.29147314  0.22490882  0.11915814    -0.27100
H557        H  0.22040618  0.31956916  0.11928647     0.11800
H558        H  0.18919454  0.32078965  0.18001270     0.13000
H559        H  0.29520065  0.18149508  0.17730979     0.12000
H560        H  0.26338594  0.18215572  0.23746392     0.11300
H561        H  0.22086168  0.20660886  0.27830190     0.16700
H562        H  0.17345482  0.29530828  0.24133580     0.12600
H563        H  0.26002424  0.29264909  0.07603790     0.15400
H564        H  0.30751268  0.20434889  0.11493567     0.15200
C565        C  0.20041622  0.23892309  0.48241955    -0.17700
C566        C  0.18199845  0.23910277  0.44810527    -0.19800
C567        C  0.19752607  0.24387278  0.41216354     0.20800
C568        C  0.23189748  0.24852465  0.41096940    -0.02700
C569        C  0.25043432  0.24852252  0.44565287    -0.05800
C570        C  0.23475752  0.24372234  0.48159030     0.21100
C571        C  0.28473856  0.25290671  0.44421797     0.19300
C572        C  0.30039067  0.25757926  0.40837518    -0.17300
C573        C  0.28209231  0.25809214  0.37423253    -0.19500
C574        C  0.24782657  0.25342048  0.37516687     0.20800
C575        C  0.22943867  0.25363133  0.34083466    -0.32500
C576        C  0.19500052  0.24785543  0.34099182     0.01400
C577        C  0.17937064  0.24398494  0.37748602    -0.23900
C578        C  0.25283094  0.24440223  0.01570625    -0.28400
C579        C  0.28780031  0.24790207  0.01488619     0.07100
C580        C  0.30307057  0.25261864  0.47844106    -0.27100
H581        H  0.18653646  0.23924521  0.00974155     0.11800
H582        H  0.15556958  0.23542721  0.44969464     0.13000
H583        H  0.32685241  0.26108443  0.40674961     0.12000
H584        H  0.29481210  0.26191762  0.34702920     0.11300
H585        H  0.24236117  0.25910456  0.31427678     0.16700
H586        H  0.15285961  0.24074207  0.37870493     0.12600
H587        H  0.23985434  0.24103822  0.04267499     0.15400
H588        H  0.32929242  0.25409330  0.47513240     0.15200
C589        C  0.41763163  0.34020781  0.97625378    -0.17700
C590        C  0.40045464  0.31162155  0.98493616    -0.19800
C591        C  0.37649265  0.31112793  0.01424737     0.20800
C592        C  0.37032395  0.33933021  0.03560497    -0.02700
C593        C  0.38846721  0.36801287  0.02775983    -0.05800
C594        C  0.41178918  0.36851094  0.99748618     0.21100
C595        C  0.38344703  0.39603024  0.05029983     0.19300
C596        C  0.36024446  0.39495585  0.08044897    -0.17300
C597        C  0.34203765  0.36655377  0.08790870    -0.19500
C598        C  0.34672578  0.33859738  0.06543975     0.20800
C599        C  0.32808186  0.31010157  0.07218972    -0.32500
C600        C  0.33182419  0.28203852  0.04878073     0.01400
C601        C  0.35867952  0.28280881  0.02237215    -0.23900
C602        C  0.42913606  0.39716119  0.98917647    -0.28400
C603        C  0.42448383  0.42518807  0.01149109     0.07100
C604        C  0.40183107  0.42442380  0.04233282    -0.27100
H605        H  0.43565002  0.34011949  0.95310850     0.11800
H606        H  0.40548813  0.29001218  0.96822644     0.13000
H607        H  0.35605765  0.41613909  0.09817726     0.12000
H608        H  0.32413588  0.36652470  0.11116578     0.11300
H609        H  0.31147063  0.31051917  0.09633074     0.16700
H610        H  0.36709411  0.26072658  0.00864253     0.12600
H611        H  0.44690781  0.39744532  0.96573018     0.15400
H612        H  0.39819049  0.44596915  0.05962961     0.15200
C613        C  0.37164213  0.11225872  0.01806584    -0.17700
C614        C  0.34962561  0.13822986  0.01367999    -0.19800
C615        C  0.35338523  0.16666844  0.03549744     0.20800
C616        C  0.37994274  0.16906544  0.06152605    -0.02700
C617        C  0.40198934  0.14278489  0.06621435    -0.05800
C618        C  0.39772076  0.11410537  0.04456643     0.21100
C619        C  0.42763493  0.14484037  0.09354190     0.19300
C620        C  0.43173420  0.17333321  0.11500174    -0.17300
C621        C  0.41010887  0.19937976  0.11010874    -0.19500
C622        C  0.38395733  0.19731018  0.08379417     0.20800
C623        C  0.36148564  0.22285425  0.08001432    -0.32500
C624        C  0.33457373  0.22116328  0.05413047     0.01400
C625        C  0.33074981  0.19243116  0.03221599    -0.23900
C626        C  0.41870416  0.08738678  0.05108437    -0.28400
C627        C  0.44312760  0.08888202  0.07977387     0.07100
C628        C  0.44789377  0.11791444  0.10015594    -0.27100
H629        H  0.36788596  0.09047287  0.00123564     0.11800
H630        H  0.32943598  0.13593521  0.99344275     0.13000
H631        H  0.45136160  0.17527874  0.13604309     0.12000
H632        H  0.41354509  0.22098480  0.12736177     0.11300
H633        H  0.36449639  0.24414245  0.09794005     0.16700
H634        H  0.30987234  0.18950715  0.01317180     0.12600
H635        H  0.41470421  0.06487399  0.03569929     0.15400
H636        H  0.46673875  0.11911336  0.12228396     0.15200
C637        C  0.30999508  0.25118712  0.55322792    -0.02300
C638        C  0.74049286  0.31835290  0.96825906    -0.02300
C639        C  0.23517395  0.68758043  0.92569303    -0.02300
O640        O  0.52876238  0.48085696  0.93844816    -0.57600
C641        C  0.43539000  0.54724648  0.94822368     0.75000
O642        O  0.45444179  0.47576771  0.52603849    -0.58800
C643        C  0.54189706  0.46637680  0.96724388     0.75000
C644        C  0.52087094  0.56276015  0.50596408     0.77400
Cd645      Cd  0.48605418  0.50766753  0.98054309     1.37500
O646        O  0.45499161  0.53227541  0.92566971    -0.57600
O647        O  0.51846346  0.55603398  0.97350826    -0.56400
C648        C  0.44732174  0.45315056  0.50250450     0.77300
O649        O  0.50846498  0.54227156  0.52960995    -0.58800
O650        O  0.43501126  0.53498029  0.47709086    -0.57300
O651        O  0.53218504  0.47327103  0.49585910    -0.57300
O652        O  0.45397642  0.45956616  0.96773224    -0.56400
C653        C  0.73282760  0.18679795  0.71889751    -0.02300
C654        C  0.67337832  0.75084139  0.55557010    -0.02300
C655        C  0.80759813  0.74280798  0.80493913    -0.02300
O656        O  0.94830144  0.03025882  0.70210142    -0.57600
C657        C  0.04178715  0.96563919  0.70891100     0.75000
O658        O  0.01886494  0.03217831  0.79076268    -0.58800
C659        C  0.92905705  0.03661839  0.73022384     0.75000
C660        C  0.95588093  0.93782402  0.76395584     0.77400
Cd661      Cd  0.98737799  0.99838625  0.74325924     1.37500
O662        O  0.01713924  0.97326559  0.68794544    -0.57600
O663        O  0.95867502  0.94871445  0.72974616    -0.56400
C664        C  0.02601267  0.05379979  0.76540418     0.77300
O665        O  0.96801587  0.95543566  0.79068001    -0.58800
O666        O  0.04116779  0.97432480  0.74393168    -0.57300
O667        O  0.93639164  0.02421515  0.76274019    -0.57300
O668        O  0.01493837  0.04931654  0.73161442    -0.56400
C669        C  0.23636730  0.81797274  0.67407764    -0.02300
O670        O  0.45543767  0.97182746  0.67107154    -0.57600
C671        C  0.54199085  0.03925454  0.65870500     0.75000
O672        O  0.52045649  0.96762098  0.57526152    -0.58800
C673        C  0.43463463  0.96402477  0.64525965     0.75000
C674        C  0.45792836  0.05782543  0.59363304     0.77400
Cd675      Cd  0.49108499  0.00186160  0.62374844     1.37500
O676        O  0.51678924  0.03101561  0.67844764    -0.57600
O677        O  0.46250709  0.05233843  0.62922191    -0.56400
C678        C  0.53035478  0.94754194  0.60090715     0.77300
O679        O  0.46884835  0.03672467  0.57008038    -0.58800
O680        O  0.54356632  0.02939934  0.62417818    -0.57300
O681        O  0.44008729  0.97441391  0.61134546    -0.57300
O682        O  0.52226161  0.95344139  0.63550362    -0.56400
C683        C  0.17257927  0.25075915  0.80321674    -0.02300
O684        O  0.95513675  0.47849667  0.94954262    -0.57600
C685        C  0.03741520  0.54102575  0.91361503     0.75000
O686        O  0.00558842  0.45559927  0.84077803    -0.58800
C687        C  0.94403852  0.45275231  0.93425482     0.75000
C688        C  0.94429210  0.54278943  0.86207795     0.77400
Cd689      Cd  0.98896147  0.49434837  0.89169747     1.37500
O690        O  0.02808492  0.51981763  0.93830124    -0.57600
O691        O  0.94727111  0.53492297  0.89722896    -0.56400
C692        C  0.03230817  0.44748992  0.85741042     0.77300
O693        O  0.96051016  0.52582415  0.83802798    -0.58800
O694        O  0.02425720  0.53984337  0.88057607    -0.57300
O695        O  0.95544044  0.44554600  0.90144540    -0.57300
O696        O  0.03954970  0.46231610  0.88817181    -0.56400
C697        C  0.04228087  0.33314502  0.82022648    -0.17700
C698        C  0.06149938  0.30538644  0.81493147    -0.19800
C699        C  0.09606596  0.30744666  0.81516525     0.20800
C700        C  0.11141602  0.33774636  0.82083146    -0.02700
C701        C  0.09200176  0.36566549  0.82745937    -0.05800
C702        C  0.05726322  0.36333711  0.82678215     0.21100
C703        C  0.10730343  0.39567386  0.83563387     0.19300
C704        C  0.14188765  0.39766263  0.83579260    -0.17300
C705        C  0.16108927  0.37016366  0.82807939    -0.19500
C706        C  0.14608495  0.34001143  0.82084313     0.20800
C707        C  0.16511434  0.31207195  0.81405822    -0.32500
C708        C  0.15022856  0.28128239  0.80830357     0.01400
C709        C  0.11534656  0.27953356  0.81041955    -0.23900
C710        C  0.03808009  0.39097873  0.83386677    -0.28400
C711        C  0.05306845  0.42057797  0.84350229     0.07100
C712        C  0.08770219  0.42283944  0.84438910    -0.27100
H713        H  0.01566118  0.33088198  0.81987561     0.11800
H714        H  0.04928730  0.28226675  0.81051269     0.13000
H715        H  0.15410153  0.42048448  0.84194271     0.12000
H716        H  0.18771088  0.37238605  0.82832565     0.11300
H717        H  0.19176755  0.31407066  0.81372859     0.16700
H718        H  0.10251554  0.25659166  0.80928320     0.12600
H719        H  0.01140688  0.38903806  0.83408423     0.15400
H720        H  0.09928296  0.44562722  0.85222009     0.15200
C721        C  0.29770663  0.90723950  0.60911454    -0.17700
C722        C  0.32407724  0.92899685  0.60677957    -0.19800
C723        C  0.35100920  0.92585670  0.63180953     0.20800
C724        C  0.35131795  0.90082595  0.65981044    -0.02700
C725        C  0.32446551  0.87899999  0.66237901    -0.05800
C726        C  0.29773369  0.88219369  0.63674287     0.21100
C727        C  0.32442995  0.85397190  0.69036331     0.19300
C728        C  0.35169139  0.85062801  0.71505337    -0.17300
C729        C  0.37848274  0.87216167  0.71235379    -0.19500
C730        C  0.37850372  0.89748309  0.68494877     0.20800
C731        C  0.40536791  0.91913838  0.68160569    -0.32500
C732        C  0.40533815  0.94360715  0.65301285     0.01400
C733        C  0.37790652  0.94697130  0.62867177    -0.23900
C734        C  0.27101625  0.86084480  0.63963482    -0.28400
C735        C  0.26900412  0.83745941  0.66958346     0.07100
C736        C  0.29694042  0.83315125  0.69358108    -0.27100
H737        H  0.27716750  0.91012955  0.58944375     0.11800
H738        H  0.32351362  0.94816304  0.58518943     0.13000
H739        H  0.35220655  0.83146940  0.73664858     0.12000
H740        H  0.39917499  0.86902214  0.73173926     0.11300
H741        H  0.42667680  0.91623455  0.70013301     0.16700
H742        H  0.37775118  0.96583959  0.60665757     0.12600
H743        H  0.25047515  0.86374947  0.61994636     0.15400
H744        H  0.29753979  0.81387719  0.71493110     0.15200
C745        C  0.11277127  0.11158040  0.84009884    -0.17700
C746        C  0.13408616  0.13819918  0.84438024    -0.19800
C747        C  0.13288433  0.16462781  0.81849912     0.20800
C748        C  0.11020741  0.16397003  0.78777597    -0.02700
C749        C  0.08870237  0.13708864  0.78339527    -0.05800
C750        C  0.08988879  0.11075310  0.80974581     0.21100
C751        C  0.06620843  0.13649998  0.75244303     0.19300
C752        C  0.06525752  0.16267575  0.72628172    -0.17300
C753        C  0.08660805  0.18914746  0.73055467    -0.19500
C754        C  0.10918946  0.19000425  0.76117417     0.20800
C755        C  0.13035184  0.21670879  0.76588009    -0.32500
C756        C  0.15168948  0.21909742  0.79806423     0.01400
C757        C  0.15375522  0.19172967  0.82308792    -0.23900
C758        C  0.06858879  0.08392107  0.80485312    -0.28400
C759        C  0.04652905  0.08296285  0.77353775     0.07100
C760        C  0.04540094  0.10955847  0.74775261    -0.27100
H761        H  0.11424102  0.09159126  0.86052738     0.11800
H762        H  0.15141203  0.13819199  0.86814560     0.13000
H763        H  0.04808562  0.16260723  0.70236087     0.12000
H764        H  0.08537286  0.20903047  0.70994929     0.11300
H765        H  0.12918308  0.23666855  0.74534446     0.16700
H766        H  0.17154329  0.19096237  0.84621489     0.12600
H767        H  0.06985333  0.06346065  0.82465328     0.15400
H768        H  0.02845090  0.10915895  0.72359376     0.15200
C769        C  0.08774267  0.86066086  0.66880092    -0.17700
C770        C  0.11466245  0.83940009  0.66764427    -0.19800
C771        C  0.14669403  0.85072246  0.67514165     0.20800
C772        C  0.15162304  0.88385254  0.68348698    -0.02700
C773        C  0.12442126  0.90515281  0.68558843    -0.05800
C774        C  0.09228263  0.89351403  0.67817485     0.21100
C775        C  0.12930086  0.93782605  0.69638840     0.19300
C776        C  0.16129135  0.94916619  0.70377953    -0.17300
C777        C  0.18824353  0.92824823  0.70085771    -0.19500
C778        C  0.18361641  0.89555375  0.69090585     0.20800
C779        C  0.21053064  0.87446606  0.68841449    -0.32500
C780        C  0.20645947  0.84145598  0.67798139     0.01400
C781        C  0.17385795  0.82956660  0.67428392    -0.23900
C782        C  0.06520603  0.91456452  0.68210471    -0.28400
C783        C  0.06993649  0.94661272  0.69473937     0.07100
C784        C  0.10199911  0.95819415  0.70128491    -0.27100
H785        H  0.06326942  0.85124709  0.66313750     0.11800
H786        H  0.11041922  0.81407817  0.66085095     0.13000
H787        H  0.16544274  0.97416362  0.71213744     0.12000
H788        H  0.21271635  0.93759278  0.70671885     0.11300
H789        H  0.23461732  0.88401966  0.69550283     0.16700
H790        H  0.16985927  0.80395755  0.66883052     0.12600
H791        H  0.04036182  0.90541496  0.67810375     0.15400
H792        H  0.10551257  0.98276359  0.71166748     0.15200
C793        C  0.86875434  0.82085656  0.71839929    -0.17700
C794        C  0.88933602  0.84774878  0.71293631    -0.19800
C795        C  0.90481097  0.86242662  0.74454947     0.20800
C796        C  0.90040647  0.84929221  0.78188994    -0.02700
C797        C  0.87958557  0.82197631  0.78737272    -0.05800
C798        C  0.86327451  0.80819184  0.75557353     0.21100
C799        C  0.87489527  0.80864500  0.82455654     0.19300
C800        C  0.89178250  0.82241004  0.85589637    -0.17300
C801        C  0.91206634  0.84982840  0.85058443    -0.19500
C802        C  0.91618252  0.86384521  0.81374490     0.20800
C803        C  0.93507464  0.89245253  0.80818040    -0.32500
C804        C  0.93845728  0.90636340  0.77102434     0.01400
C805        C  0.92390820  0.89049255  0.73939869    -0.23900
C806        C  0.84120670  0.78239867  0.76131372    -0.28400
C807        C  0.83349462  0.77055731  0.79879126     0.07100
C808        C  0.85283236  0.78238346  0.82979616    -0.27100
H809        H  0.85656857  0.81037142  0.69359332     0.11800
H810        H  0.89265998  0.85744982  0.68402215     0.13000
H811        H  0.88870723  0.81243082  0.88470856     0.12000
H812        H  0.92417838  0.86033538  0.87541168     0.11300
H813        H  0.94653228  0.90414053  0.83269229     0.16700
H814        H  0.92658060  0.90055213  0.71054939     0.12600
H815        H  0.83012392  0.77168554  0.73602214     0.15400
H816        H  0.84968896  0.77200366  0.85839161     0.15200
C817        C  0.87807568  0.63565326  0.90418482    -0.17700
C818        C  0.85970057  0.66354556  0.89655610    -0.19800
C819        C  0.85475256  0.67406007  0.85841908     0.20800
C820        C  0.86917485  0.65688856  0.82771584    -0.02700
C821        C  0.88762998  0.62846988  0.83538732    -0.05800
C822        C  0.89174239  0.61778785  0.87379815     0.21100
C823        C  0.90195985  0.61084270  0.80479831     0.19300
C824        C  0.89811757  0.62240974  0.76678822    -0.17300
C825        C  0.88027428  0.65098237  0.75927277    -0.19500
C826        C  0.86548561  0.66832175  0.78955124     0.20800
C827        C  0.84686986  0.69665778  0.78243606    -0.32500
C828        C  0.82911593  0.71207090  0.81249894     0.01400
C829        C  0.83536089  0.70135281  0.85073589    -0.23900
C830        C  0.90957659  0.58951335  0.88142197    -0.28400
C831        C  0.92384034  0.57140090  0.85139892     0.07100
C832        C  0.92002242  0.58226705  0.81295864    -0.27100
H833        H  0.88136939  0.62789624  0.93388526     0.11800
H834        H  0.84905314  0.67671880  0.92050863     0.13000
H835        H  0.90897380  0.60940164  0.74285076     0.12000
H836        H  0.87769871  0.65929779  0.72969098     0.11300
H837        H  0.84541849  0.70616620  0.75325638     0.16700
H838        H  0.82550820  0.71443175  0.87515490     0.12600
H839        H  0.91264424  0.58182855  0.91119840     0.15400
H840        H  0.93130817  0.56880532  0.78964560     0.15200
C841        C  0.76058115  0.68662610  0.68633236    -0.17700
C842        C  0.74494600  0.68880022  0.65019320    -0.19800
C843        C  0.73114650  0.71825804  0.63739897     0.20800
C844        C  0.73354141  0.74574538  0.66138151    -0.02700
C845        C  0.74936491  0.74358251  0.69781232    -0.05800
C846        C  0.76303021  0.71392533  0.71042070     0.21100
C847        C  0.75135083  0.77114012  0.72163805     0.19300
C848        C  0.73801040  0.80069854  0.70880365    -0.17300
C849        C  0.72288101  0.80295111  0.67265117    -0.19500
C850        C  0.72030874  0.77555159  0.64890178     0.20800
C851        C  0.70383146  0.77744144  0.61343939    -0.32500
C852        C  0.69743023  0.74939017  0.59097869     0.01400
C853        C  0.71407507  0.72050971  0.60181738    -0.23900
C854        C  0.77957817  0.71232090  0.74630743    -0.28400
C855        C  0.78431365  0.74056309  0.76899731     0.07100
C856        C  0.76765356  0.76912992  0.75727333    -0.27100
H857        H  0.77099989  0.66358432  0.69531511     0.11800
H858        H  0.74338095  0.66731043  0.63239806     0.13000
H859        H  0.73954162  0.82219783  0.72660071     0.12000
H860        H  0.71273412  0.82607279  0.66349992     0.11300
H861        H  0.69504028  0.80102861  0.60417781     0.16700
H862        H  0.71198096  0.69923011  0.58373043     0.12600
H863        H  0.78892801  0.68909502  0.75588889     0.15400
H864        H  0.76963561  0.79074650  0.77485164     0.15200
C865        C  0.71156351  0.69500166  0.93467803    -0.17700
C866        C  0.72750279  0.69508981  0.89879957    -0.19800
C867        C  0.74524422  0.72250752  0.88619816     0.20800
C868        C  0.74644744  0.75027466  0.90976243    -0.02700
C869        C  0.72994974  0.75031404  0.94598619    -0.05800
C870        C  0.71269294  0.72247581  0.95849230     0.21100
C871        C  0.73122210  0.77790339  0.96991450     0.19300
C872        C  0.74869066  0.80544841  0.95693548    -0.17300
C873        C  0.76494513  0.80545592  0.92102528    -0.19500
C874        C  0.76433014  0.77783658  0.89732204     0.20800
C875        C  0.78208140  0.77694567  0.86212826    -0.32500
C876        C  0.78354840  0.74816639  0.83983027     0.01400
C877        C  0.76284342  0.72202778  0.85119696    -0.23900
C878        C  0.69743617  0.72184778  0.49520637    -0.28400
C879        C  0.69523374  0.75019020  0.51822076     0.07100
C880        C  0.71462905  0.77761738  0.00596904    -0.27100
H881        H  0.70078307  0.67237418  0.44531174     0.11800
H882        H  0.72636816  0.67348245  0.88114724     0.13000
H883        H  0.74983302  0.82703869  0.97460030     0.12000
H884        H  0.77845600  0.82696785  0.91205807     0.11300
H885        H  0.79509558  0.79857372  0.85286726     0.16700
H886        H  0.76245401  0.70015680  0.83392311     0.12600
H887        H  0.68621305  0.69930195  0.50475555     0.15400
H888        H  0.71567139  0.79892464  0.02413425     0.15200
C889        C  0.57845550  0.84371116  0.64339607    -0.17700
C890        C  0.59749486  0.81614773  0.63646931    -0.19800
C891        C  0.61288072  0.81188673  0.60055821     0.20800
C892        C  0.60885867  0.83532357  0.57119095    -0.02700
C893        C  0.58901690  0.86288418  0.57789102    -0.05800
C894        C  0.57409215  0.86717316  0.61430677     0.21100
C895        C  0.58422018  0.88614220  0.54828980     0.19300
C896        C  0.59928367  0.88142626  0.51221370    -0.17300
C897        C  0.61926384  0.85423518  0.50572927    -0.19500
C898        C  0.62447309  0.83114835  0.53514400     0.20800
C899        C  0.64512034  0.80414282  0.52921473    -0.32500
C900        C  0.65072295  0.78122501  0.55916008     0.01400
C901        C  0.63257199  0.78473757  0.59385387    -0.23900
C902        C  0.55508993  0.89485447  0.62112960    -0.28400
C903        C  0.55023244  0.91834835  0.59198548     0.07100
C904        C  0.56462366  0.91369098  0.55542456    -0.27100
H905        H  0.56709401  0.84665526  0.67149890     0.11800
H906        H  0.60051450  0.79833995  0.65937018     0.13000
H907        H  0.59583113  0.89891756  0.48907110     0.12000
H908        H  0.63083976  0.85138743  0.47773941     0.11300
H909        H  0.65588793  0.80088615  0.50096846     0.16700
H910        H  0.63500997  0.76659529  0.61651771     0.12600
H911        H  0.54392451  0.89801718  0.64932515     0.15400
H912        H  0.56098719  0.93165245  0.53281982     0.15200
C913        C  0.68655424  0.07664127  0.68805606    -0.17700
C914        C  0.66003106  0.05616405  0.67991633    -0.19800
C915        C  0.62765041  0.06778227  0.68210992     0.20800
C916        C  0.62184126  0.10026175  0.69306130    -0.02700
C917        C  0.64874060  0.12107591  0.70081443    -0.05800
C918        C  0.68113723  0.10913088  0.69827915     0.21100
C919        C  0.64328218  0.15398889  0.70976943     0.19300
C920        C  0.61077828  0.16559352  0.71185596    -0.17300
C921        C  0.58400930  0.14481620  0.70486147    -0.19500
C922        C  0.58926354  0.11214461  0.69517883     0.20800
C923        C  0.56273172  0.09137268  0.68635005    -0.32500
C924        C  0.56869876  0.05936208  0.67433613     0.01400
C925        C  0.60107357  0.04772745  0.67240527    -0.23900
C926        C  0.70778489  0.12989722  0.70500036    -0.28400
C927        C  0.70315460  0.16291309  0.71499278     0.07100
C928        C  0.67040223  0.17476681  0.71581931    -0.27100
H929        H  0.71137865  0.06713953  0.68592895     0.11800
H930        H  0.66486578  0.03130192  0.67156293     0.13000
H931        H  0.60605257  0.19079122  0.71875801     0.12000
H932        H  0.55920897  0.15443789  0.70644091     0.11300
H933        H  0.53768014  0.10049123  0.68689404     0.16700
H934        H  0.60553337  0.02314288  0.66261757     0.12600
H935        H  0.73216584  0.12017732  0.70030742     0.15400
H936        H  0.66613961  0.20031332  0.72128432     0.15200
C937        C  0.82260632  0.07530002  0.78125127    -0.17700
C938        C  0.79673984  0.09771231  0.78140400    -0.19800
C939        C  0.79562562  0.12283095  0.75385165     0.20800
C940        C  0.82090744  0.12548700  0.72600175    -0.02700
C941        C  0.84711581  0.10285897  0.72585083    -0.05800
C942        C  0.84790078  0.07767803  0.75364105     0.21100
C943        C  0.87252083  0.10548133  0.69802042     0.19300
C944        C  0.87163089  0.13104027  0.67096479    -0.17300
C945        C  0.84568536  0.15347687  0.67118408    -0.19500
C946        C  0.82000561  0.15069795  0.69831316     0.20800
C947        C  0.79304544  0.17210625  0.69746939    -0.32500
C948        C  0.76589525  0.16782174  0.72285933     0.01400
C949        C  0.76903972  0.14455692  0.75287669    -0.23900
C950        C  0.87421438  0.05562133  0.75380688    -0.28400
C951        C  0.89984691  0.05811570  0.72646993     0.07100
C952        C  0.89858122  0.08286516  0.69823063    -0.27100
H953        H  0.82284014  0.05608997  0.80279055     0.11800
H954        H  0.77741148  0.09519686  0.80287194     0.13000
H955        H  0.89098977  0.13365677  0.64955829     0.12000
H956        H  0.84547480  0.17276427  0.64973894     0.11300
H957        H  0.79327099  0.19157750  0.67637816     0.16700
H958        H  0.74927450  0.14177418  0.77377463     0.12600
H959        H  0.87497984  0.03665210  0.77565897     0.15400
H960        H  0.91842886  0.08522206  0.67738071     0.15200
C961        C  0.61646986  0.64747801  0.60308501    -0.17700
C962        C  0.59503591  0.62138558  0.59593965    -0.19800
C963        C  0.57634899  0.62038459  0.56185950     0.20800
C964        C  0.57879292  0.64638305  0.53519640    -0.02700
C965        C  0.60048485  0.67257409  0.54235510    -0.05800
C966        C  0.61979738  0.67300997  0.57618824     0.21100
C967        C  0.60317257  0.69805680  0.51527379     0.19300
C968        C  0.58368812  0.69785793  0.48186588    -0.17300
C969        C  0.56240130  0.67192142  0.47465028    -0.19500
C970        C  0.56020275  0.64586212  0.50081450     0.20800
C971        C  0.54047316  0.61888565  0.49255894    -0.32500
C972        C  0.53876668  0.59230734  0.51818042     0.01400
C973        C  0.55602558  0.59353595  0.55335501    -0.23900
C974        C  0.64248429  0.69855422  0.58214441    -0.28400
C975        C  0.64728358  0.72298608  0.55366552     0.07100
C976        C  0.62597810  0.72291555  0.52129578    -0.27100
H977        H  0.63094331  0.64735389  0.62933841     0.11800
H978        H  0.59345527  0.60173311  0.61683137     0.13000
H979        H  0.58541365  0.71746065  0.46090591     0.12000
H980        H  0.54809390  0.67196851  0.44826355     0.11300
H981        H  0.52689866  0.61825834  0.46562453     0.16700
H982        H  0.55479112  0.57308174  0.57318296     0.12600
H983        H  0.65594733  0.69905106  0.60896145     0.15400
H984        H  0.62823446  0.74194518  0.49965209     0.15200
C985        C  0.28129662  0.70971871  0.55825026    -0.17700
C986        C  0.28127289  0.72817092  0.59209393    -0.19800
C987        C  0.25868392  0.75362961  0.59686094     0.20800
C988        C  0.23581366  0.76033509  0.56730972    -0.02700
C989        C  0.23606228  0.74192647  0.53294006    -0.05800
C990        C  0.25897848  0.71661017  0.52833869     0.21100
C991        C  0.21333381  0.74884254  0.50329208     0.19300
C992        C  0.19059448  0.77411989  0.50816409    -0.17300
C993        C  0.19060842  0.79257235  0.54195178    -0.19500
C994        C  0.21308149  0.78582258  0.57172273     0.20800
C995        C  0.21323102  0.80434356  0.60560297    -0.32500
C996        C  0.23488742  0.79714106  0.63658421     0.01400
C997        C  0.25859388  0.77244933  0.63061049    -0.23900
C998        C  0.25931040  0.69864551  0.49398253    -0.28400
C999        C  0.23554156  0.70714665  0.96404480     0.07100
C1000       C  0.21202980  0.73187308  0.97032497    -0.27100
H1001       H  0.29901979  0.69023525  0.55532140     0.11800
H1002       H  0.29892785  0.72250231  0.61456648     0.13000
H1003       H  0.17294553  0.77980644  0.48569039     0.12000
H1004       H  0.17291552  0.81208532  0.54485554     0.11300
H1005       H  0.19700158  0.82506261  0.60671528     0.16700
H1006       H  0.27680116  0.76763105  0.65277457     0.12600
H1007       H  0.27620602  0.67846057  0.49216207     0.15400
H1008       H  0.19422559  0.73743442  0.94795757     0.15200
C1009       C  0.22840397  0.69436859  0.78238025    -0.17700
C1010       C  0.22663607  0.71195694  0.74775512    -0.19800
C1011       C  0.23038261  0.74586471  0.74757506     0.20800
C1012       C  0.23544387  0.76217364  0.78276749    -0.02700
C1013       C  0.23655584  0.74445268  0.81788286    -0.05800
C1014       C  0.23335929  0.71042438  0.81752946     0.21100
C1015       C  0.24110756  0.76074961  0.85321058     0.19300
C1016       C  0.24460155  0.79470625  0.85299700    -0.17300
C1017       C  0.24371619  0.81223301  0.81818830    -0.19500
C1018       C  0.23927943  0.79614850  0.78292391     0.20800
C1019       C  0.23909315  0.81341880  0.74783694    -0.32500
C1020       C  0.23545075  0.79743437  0.71194811     0.01400
C1021       C  0.22941239  0.76356612  0.71275864    -0.23900
C1022       C  0.23457796  0.69298620  0.85232558    -0.28400
C1023       C  0.23708599  0.70885134  0.88839292     0.07100
C1024       C  0.24182912  0.74292805  0.88808581    -0.27100
H1025       H  0.22567098  0.66818501  0.78169099     0.11800
H1026       H  0.22272327  0.69897266  0.72103556     0.13000
H1027       H  0.24800471  0.80773996  0.87977537     0.12000
H1028       H  0.24662141  0.83839785  0.81884625     0.11300
H1029       H  0.24261549  0.83951120  0.74829414     0.16700
H1030       H  0.22375302  0.75056737  0.68660825     0.12600
H1031       H  0.23194916  0.66677707  0.85165567     0.15400
H1032       H  0.24635056  0.75587277  0.91458155     0.15200
C1033       C  0.35718027  0.67505407  0.93394988    -0.17700
C1034       C  0.38537332  0.65570303  0.93737846    -0.19800
C1035       C  0.38324955  0.62186977  0.93303981     0.20800
C1036       C  0.35245075  0.60747736  0.92470994    -0.02700
C1037       C  0.32388445  0.62695753  0.92219750    -0.05800
C1038       C  0.32629514  0.66084858  0.92681831     0.21100
C1039       C  0.29288779  0.61243916  0.91563006     0.19300
C1040       C  0.28806857  0.57450078  0.41452842    -0.17300
C1041       C  0.31596779  0.55457778  0.41589477    -0.19500
C1042       C  0.34999651  0.57349716  0.92008544     0.20800
C1043       C  0.37815680  0.55407771  0.92460554    -0.32500
C1044       C  0.40851073  0.56814296  0.93438232     0.01400
C1045       C  0.41105726  0.60202436  0.93821718    -0.23900
C1046       C  0.29768052  0.67984555  0.92547619    -0.28400
C1047       C  0.26605445  0.66543928  0.92256679     0.07100
C1048       C  0.26434206  0.63167898  0.91540395    -0.27100
H1049       H  0.35941755  0.70107638  0.93774427     0.11800
H1050       H  0.40879080  0.66717075  0.94377538     0.13000
H1051       H  0.26390436  0.56330507  0.41295554     0.12000
H1052       H  0.31274916  0.52844372  0.41544809     0.11300
H1053       H  0.37271306  0.52226955  0.42497001     0.16700
H1054       H  0.43440537  0.61272484  0.94662891     0.12600
H1055       H  0.29969398  0.70591938  0.92912618     0.15400
H1056       H  0.24099849  0.62004004  0.90948270     0.15200
C1057       C  0.13771677  0.57833349  0.98188947    -0.17700
C1058       C  0.16536409  0.59879606  0.98312057    -0.19800
C1059       C  0.16900048  0.62433985  0.95633858     0.20800
C1060       C  0.14410203  0.62983588  0.92877754    -0.02700
C1061       C  0.11622089  0.60927947  0.92753992    -0.05800
C1062       C  0.11319248  0.58308397  0.95388983     0.21100
C1063       C  0.09181542  0.61447640  0.89926065     0.19300
C1064       C  0.09478501  0.64068857  0.87340045    -0.17300
C1065       C  0.12219891  0.66121153  0.87492735    -0.19500
C1066       C  0.14720142  0.65564089  0.90209861     0.20800
C1067       C  0.17552295  0.67508233  0.90232526    -0.32500
C1068       C  0.20224663  0.66814489  0.92728716     0.01400
C1069       C  0.19748187  0.64386623  0.95591656    -0.23900
C1070       C  0.08629919  0.56157310  0.95088486    -0.28400
C1071       C  0.06287274  0.56581073  0.92144226     0.07100
C1072       C  0.06537237  0.59280716  0.89648888    -0.27100
H1073       H  0.13580256  0.55844843  0.00243261     0.11800
H1074       H  0.18127522  0.59771946  0.50896478     0.13000
H1075       H  0.07614867  0.64502598  0.85160773     0.12000
H1076       H  0.12420592  0.68101294  0.85426761     0.11300
H1077       H  0.17638494  0.69553411  0.88261036     0.16700
H1078       H  0.21677464  0.63926912  0.97683792     0.11800
H1079       H  0.08445314  0.54080204  0.97018078     0.15400
H1080       H  0.04714787  0.59645931  0.87401602     0.15200
C1081       C  0.74562291  0.21025696  0.54034277    -0.17700
C1082       C  0.74278476  0.19259961  0.57493607    -0.19800
C1083       C  0.73727782  0.20862490  0.61004043     0.20800
C1084       C  0.73444475  0.24267716  0.61025334    -0.02700
C1085       C  0.73776702  0.26054113  0.57540108    -0.05800
C1086       C  0.74315356  0.24429398  0.54021312     0.21100
C1087       C  0.73607127  0.29466577  0.57590671     0.19300
C1088       C  0.72979820  0.31064598  0.61083343    -0.17300
C1089       C  0.72557442  0.29291901  0.64511370    -0.19500
C1090       C  0.72838891  0.25894052  0.64527046     0.20800
C1091       C  0.72600223  0.24116185  0.67997234    -0.32500
C1092       C  0.73168937  0.20726338  0.68088393     0.01400
C1093       C  0.73544524  0.19125179  0.64499531    -0.23900
C1094       C  0.74437422  0.26251221  0.00540280    -0.28400
C1095       C  0.74164668  0.29682467  0.00548725     0.07100
C1096       C  0.73991232  0.31227225  0.54140973    -0.27100
H1097       H  0.74976663  0.19726705  0.51367103     0.11800
H1098       H  0.74505785  0.16638773  0.57424897     0.13000
H1099       H  0.72793798  0.33688886  0.61160059     0.12000
H1100       H  0.72077320  0.30586612  0.67166593     0.11300
H1101       H  0.72004080  0.25417054  0.70604285     0.16700
H1102       H  0.73846459  0.16511277  0.64454002     0.12600
H1103       H  0.74823352  0.24955513  0.97876609     0.15400
H1104       H  0.73875809  0.33857183  0.54222872     0.15200
C1105       C  0.77987797  0.27591386  0.79952467    -0.17700
C1106       C  0.78115841  0.29410724  0.83348193    -0.19800
C1107       C  0.75910671  0.28769614  0.86393288     0.20800
C1108       C  0.73496109  0.26335945  0.85964019    -0.02700
C1109       C  0.73347336  0.24513948  0.82511665    -0.05800
C1110       C  0.75632950  0.25116247  0.79521678     0.21100
C1111       C  0.70957765  0.22052105  0.82088550     0.19300
C1112       C  0.68705780  0.21466050  0.85106692    -0.17300
C1113       C  0.68829401  0.23295582  0.88504999    -0.19500
C1114       C  0.71230811  0.25724428  0.88974960     0.20800
C1115       C  0.71422182  0.27526513  0.92409947    -0.32500
C1116       C  0.73958453  0.29841122  0.93005730     0.01400
C1117       C  0.76100351  0.30518088  0.89853433    -0.23900
C1118       C  0.75551617  0.23222716  0.76165678    -0.28400
C1119       C  0.73123739  0.20793767  0.75610579     0.07100
C1120       C  0.70881028  0.20193083  0.78686962    -0.27100
H1121       H  0.79745244  0.28110172  0.77668208     0.11800
H1122       H  0.79973129  0.31292829  0.83612520     0.13000
H1123       H  0.66846001  0.19586966  0.84841441     0.12000
H1124       H  0.67065598  0.22785205  0.90784876     0.11300
H1125       H  0.69625389  0.27088727  0.94677147     0.16700
H1126       H  0.77886129  0.32465169  0.89998679     0.12600
H1127       H  0.77384618  0.23648325  0.73934599     0.15400
H1128       H  0.69135076  0.18212085  0.78543857     0.15200
C1129       C  0.63118018  0.35421444  0.02274879    -0.17700
C1130       C  0.60427846  0.37531022  0.02280798    -0.19800
C1131       C  0.60058201  0.39852488  0.99331348     0.20800
C1132       C  0.62416625  0.40057969  0.96344783    -0.02700
C1133       C  0.65182276  0.37972444  0.96394148    -0.05800
C1134       C  0.65516864  0.35637535  0.99358202     0.21100
C1135       C  0.67596462  0.38213145  0.93477526     0.19300
C1136       C  0.67185552  0.40496510  0.90483300    -0.17300
C1137       C  0.64418592  0.42536641  0.90400541    -0.19500
C1138       C  0.62022725  0.42356153  0.93331688     0.20800
C1139       C  0.59270132  0.44452175  0.93346055    -0.32500
C1140       C  0.56970355  0.44316600  0.96397003     0.01400
C1141       C  0.57381725  0.41987725  0.99348365    -0.23900
C1142       C  0.68246305  0.33562598  0.99390288    -0.28400
C1143       C  0.70847803  0.33929201  0.96684284     0.07100
C1144       C  0.70394649  0.36200895  0.93636205    -0.27100
H1145       H  0.63346654  0.33648983  0.04586082     0.11800
H1146       H  0.58829137  0.37558964  0.54386693     0.13000
H1147       H  0.69012041  0.40713396  0.88208143     0.12000
H1148       H  0.64170472  0.44279444  0.88062126     0.11300
H1149       H  0.58974210  0.46243542  0.91066274     0.16700
H1150       H  0.55603895  0.41836917  0.01686701     0.12600
H1151       H  0.68281599  0.31662039  0.01551522     0.15400
H1152       H  0.72276528  0.36446415  0.91426505     0.15200
C1153       C  0.89205547  0.34594706  0.95682244    -0.17700
C1154       C  0.86330653  0.32739113  0.96147567    -0.19800
C1155       C  0.83274816  0.34257414  0.96730779     0.20800
C1156       C  0.83138999  0.37667370  0.97022575    -0.02700
C1157       C  0.86053712  0.39539720  0.96647823    -0.05800
C1158       C  0.89083783  0.37998854  0.95856858     0.21100
C1159       C  0.85909576  0.42959590  0.96896848     0.19300
C1160       C  0.82869792  0.44465021  0.97609676    -0.17300
C1161       C  0.79982716  0.42611093  0.97944718    -0.19500
C1162       C  0.80082183  0.39215844  0.97585212     0.20800
C1163       C  0.77165822  0.37364534  0.97664197    -0.32500
C1164       C  0.77225396  0.33962161  0.97080121     0.01400
C1165       C  0.80344551  0.32433695  0.96878266    -0.23900
C1166       C  0.91895355  0.39895423  0.95066492    -0.28400
C1167       C  0.91733997  0.43305560  0.95164476     0.07100
C1168       C  0.88770773  0.44818178  0.96231574    -0.27100
H1169       H  0.91514426  0.33369001  0.95109431     0.11800
H1170       H  0.86482879  0.30118971  0.95931545     0.13000
H1171       H  0.82710428  0.47085820  0.97807698     0.12000
H1172       H  0.77657677  0.43842609  0.98398722     0.11300
H1173       H  0.74867436  0.38613713  0.98171700     0.16700
H1174       H  0.80463356  0.29813783  0.96608172     0.12600
H1175       H  0.94177122  0.38729992  0.94218618     0.15400
H1176       H  0.88630012  0.47448867  0.96237817     0.15200
C1177       C  0.22253138  0.30094299  0.63943415    -0.17700
C1178       C  0.20462500  0.30183130  0.67417696    -0.19800
C1179       C  0.20873556  0.27752349  0.70249820     0.20800
C1180       C  0.23127713  0.25223995  0.69559747    -0.02700
C1181       C  0.24960104  0.25155446  0.66064443    -0.05800
C1182       C  0.24514231  0.27586235  0.63231211     0.21100
C1183       C  0.27183703  0.22610874  0.65377401     0.19300
C1184       C  0.27570738  0.20152490  0.68174307    -0.17300
C1185       C  0.25749536  0.20207250  0.71608686    -0.19500
C1186       C  0.23508713  0.22724167  0.72322447     0.20800
C1187       C  0.21621172  0.22748930  0.75729077    -0.32500
C1188       C  0.19405435  0.25303297  0.76562611     0.01400
C1189       C  0.19033455  0.27781283  0.73717209    -0.23900
C1190       C  0.26341108  0.27478052  0.59753728    -0.28400
C1191       C  0.28768863  0.25062036  0.59086280     0.07100
C1192       C  0.28992147  0.22542156  0.61917161    -0.27100
H1193       H  0.21874407  0.31997493  0.61815664     0.11800
H1194       H  0.18739500  0.32149901  0.67879922     0.13000
H1195       H  0.29283052  0.18177366  0.67703495     0.12000
H1196       H  0.26087941  0.18271008  0.73704331     0.11300
H1197       H  0.21882991  0.20767945  0.77783925     0.16700
H1198       H  0.17244043  0.29693170  0.74092308     0.12600
H1199       H  0.25912407  0.29321676  0.57563393     0.15400
H1200       H  0.30545444  0.20451330  0.61492461     0.15200
C1201       C  0.19931516  0.24180774  0.98239891    -0.17700
C1202       C  0.18081586  0.24261480  0.94813513    -0.19800
C1203       C  0.19645223  0.24608330  0.91205037     0.20800
C1204       C  0.23104044  0.24850478  0.91064426    -0.02700
C1205       C  0.24968363  0.24766438  0.94524667    -0.05800
C1206       C  0.23388757  0.24452433  0.98136789     0.21100
C1207       C  0.28419853  0.24947914  0.94355211     0.19300
C1208       C  0.29998354  0.25244543  0.90755543    -0.17300
C1209       C  0.28162491  0.25409277  0.87352095    -0.19500
C1210       C  0.24711218  0.25202000  0.87470974     0.20800
C1211       C  0.22864293  0.25333938  0.84047879    -0.32500
C1212       C  0.19393445  0.24957593  0.84081040     0.01400
C1213       C  0.17822075  0.24698461  0.87743001    -0.23900
C1214       C  0.25356997  0.24387333  0.51596954    -0.28400
C1215       C  0.28823048  0.24954571  0.51548065     0.07100
C1216       C  0.30250379  0.24841195  0.97767332    -0.27100
H1217       H  0.18773830  0.23516835  0.50965356     0.11800
H1218       H  0.15421941  0.24055674  0.94988370     0.13000
H1219       H  0.32664845  0.25393064  0.90575448     0.12000
H1220       H  0.29446481  0.25671098  0.84620609     0.11300
H1221       H  0.24181746  0.25785148  0.81386204     0.16700
H1222       H  0.15157909  0.24520553  0.87877066     0.12600
H1223       H  0.24080277  0.23889586  0.54275847     0.15400
H1224       H  0.32900089  0.24688807  0.97415998     0.15200
C1225       C  0.42430300  0.33708518  0.48434036    -0.17700
C1226       C  0.40608089  0.30906411  0.49262124    -0.19800
C1227       C  0.38000007  0.30995251  0.51929909     0.20800
C1228       C  0.37272452  0.33897854  0.53853053    -0.02700
C1229       C  0.39167373  0.36720649  0.53091567    -0.05800
C1230       C  0.41716783  0.36627809  0.50318022     0.21100
C1231       C  0.38503558  0.39629815  0.55082572     0.19300
C1232       C  0.35955882  0.39665934  0.57836853    -0.17300
C1233       C  0.34065035  0.36865497  0.58567657    -0.19500
C1234       C  0.34684015  0.33967687  0.56562860     0.20800
C1235       C  0.32735718  0.31163000  0.57193255    -0.32500
C1236       C  0.33249795  0.28263646  0.55057911     0.01400
C1237       C  0.36097605  0.28222623  0.52654324    -0.23900
C1238       C  0.43502320  0.39453964  0.49455360    -0.28400
C1239       C  0.42848736  0.42374158  0.51385419     0.07100
C1240       C  0.40382065  0.42440952  0.54251996    -0.27100
H1241       H  0.44395697  0.33592944  0.46315333     0.11800
H1242       H  0.41200019  0.28681308  0.47759573     0.13000
H1243       H  0.35405805  0.41868294  0.59404834     0.12000
H1244       H  0.32094893  0.36977024  0.60679542     0.11300
H1245       H  0.30876131  0.31329720  0.59386028     0.16700
H1246       H  0.36898982  0.25989866  0.51321832     0.12600
H1247       H  0.45429334  0.39377469  0.47281519     0.15400
H1248       H  0.39867995  0.44689629  0.55745542     0.15200
C1249       C  0.37359908  0.11467485  0.51489011    -0.17700
C1250       C  0.35198717  0.14096391  0.51028479    -0.19800
C1251       C  0.35412261  0.16815055  0.53451777     0.20800
C1252       C  0.37869143  0.16897862  0.56323063    -0.02700
C1253       C  0.40017803  0.14228725  0.56826267    -0.05800
C1254       C  0.39756190  0.11487641  0.54409346     0.21100
C1255       C  0.42366109  0.14269913  0.59822635     0.19300
C1256       C  0.42625768  0.16999396  0.62205512    -0.17300
C1257       C  0.40536126  0.19654439  0.61667768    -0.19500
C1258       C  0.38132634  0.19610429  0.58762357     0.20800
C1259       C  0.35955201  0.22214779  0.58316789    -0.32500
C1260       C  0.33412226  0.22170768  0.55521009     0.01400
C1261       C  0.33179568  0.19417724  0.53095578    -0.23900
C1262       C  0.41810877  0.08779306  0.55055403    -0.28400
C1263       C  0.44038780  0.08763820  0.58161777     0.07100
C1264       C  0.44340946  0.11540822  0.60474677    -0.27100
H1265       H  0.37114892  0.09390729  0.49604918     0.11800
H1266       H  0.33339279  0.13990402  0.48791625     0.13000
H1267       H  0.44421417  0.17065752  0.64515972     0.12000
H1268       H  0.40765507  0.21723771  0.63566944     0.11300
H1269       H  0.36163802  0.24272250  0.60240859     0.16700
H1270       H  0.31239881  0.19237906  0.50970929     0.12600
H1271       H  0.41549421  0.06629004  0.53291326     0.15400
H1272       H  0.46067775  0.11542128  0.62862253     0.15200
loop_ 
_geom_bond_atom_site_label_1 
_geom_bond_atom_site_label_2 
_geom_bond_distance 
_geom_bond_site_symmetry_2 
_ccdc_geom_bond_type 
C1          C555   1.585       .  S
C1          C579   1.583       .  S
C1          C600   1.583       .  S
C1          C624   1.560       .  S
C2          C459   1.561       .  S
C2          C480   1.562       .  S
C2          C507   1.563       .  S
C2          C528   1.556       .  S
C3          C363   1.557       .  S
C3          C387   1.558       .  S
C3          C411   1.556       .  S
C3          C432   1.558       .  S
O4            C7   1.276       .  A
O4           Cd9   2.535       .  S
C5           O10   1.275       .  A
C5          O650   1.265       .  A
C5          C408   1.471       .  S
O6           C12   1.275       .  A
O6         Cd645   2.489   1_554  S
C7          O651   1.267       .  A
C7          C504   1.485       .  S
C8           O13   1.275       .  A
C8          O647   1.268   1_554  A
C8          C336   1.478       .  S
Cd9          O16   2.410       .  S
Cd9          O10   2.504       .  S
Cd9          O11   2.405       .  S
Cd9         O642   2.496       .  S
Cd9         O651   2.391       .  S
Cd9         O650   2.407       .  S
Cd9         O649   2.502       .  S
O11         C644   1.267       .  A
C12         O652   1.269   1_554  A
C12         C603   1.480       .  S
O13        Cd645   2.493   1_554  S
O14         C641   1.267       .  A
O14        Cd645   2.402       .  S
O15         C643   1.267   1_554  A
O15        Cd645   2.394   1_554  S
O16         C648   1.269       .  A
C17         C291   1.559       .  S
C17         C312   1.557       .  S
C17         C456   1.557       .  S
C17         C483   1.561       .  S
C18         C216   1.571       .  S
C18         C243   1.570       .  S
C18         C264   1.561       .  S
C18         C339   1.563       .  S
C19         C171   1.560       .  S
C19         C192   1.562       .  S
C19         C219   1.568       .  S
C19         C240   1.567       .  S
O20          C23   1.276       .  A
O20         Cd25   2.495   1_545  S
C21          O30   1.267       .  A
C21          O26   1.276       .  A
C21         C147   1.469       .  S
O22          C28   1.278       .  A
O22         Cd25   2.510   1_445  S
C23          O31   1.269       .  A
C23         C315   1.481       .  S
C24          O29   1.277       .  A
C24          O27   1.269       .  A
C24         C168   1.490       .  S
Cd25         O32   2.407   1_665  S
Cd25         O31   2.409   1_565  S
Cd25         O30   2.375   1_655  S
Cd25         O26   2.497   1_655  S
Cd25         O29   2.514       .  S
Cd25         O27   2.408       .  S
C28          O32   1.269       .  A
C28         C123   1.487       .  S
C33          C99   1.553       .  S
C33         C144   1.556       .  S
C33         C360   1.560       .  S
C33         C384   1.556       .  S
O34          C37   1.272       .  A
O34         Cd39   2.494   1_565  S
C35          O44   1.266       .  A
C35          O40   1.272       .  A
C35         C288   1.468       .  S
O36          C42   1.275       .  A
O36         Cd39   2.510   1_565  S
C37          O45   1.265       .  A
C37          C96   1.476       .  S
C38          O43   1.274       .  A
C38          O41   1.265       .  A
C38         C627   1.477       .  S
Cd39         O46   2.411   1_545  S
Cd39         O45   2.406   1_545  S
Cd39         O44   2.405       .  S
Cd39         O40   2.490       .  S
Cd39         O43   2.510       .  S
Cd39         O41   2.396       .  S
C42          O46   1.267       .  A
C42         C267   1.486       .  S
C47          C72   1.565       .  S
C47         C120   1.563       .  S
C47         C552   1.569       .  S
C47         C576   1.564       .  S
O48          C51   1.271       .  A
O48         Cd53   2.503       .  S
C49          O58   1.266       .  A
C49          O54   1.274       .  A
C49         C435   1.477       .  S
O50          C56   1.273       .  A
O50         Cd53   2.499   1_455  S
C51          O59   1.264       .  A
C51         C531   1.473       .  S
C52          O57   1.275       .  A
C52          O55   1.265       .  A
C52         C195   1.493       .  S
Cd53         O60   2.458   1_655  S
Cd53         O59   2.433       .  S
Cd53         O58   2.388   1_655  S
Cd53         O54   2.497   1_655  S
Cd53         O57   2.546       .  S
Cd53         O55   2.414       .  S
C56          O60   1.267       .  A
C56          C75   1.481       .  S
C61          C62   1.400       .  A
C61          C66   1.403       .  A
C61          H77   1.084       .  S
C62          C63   1.405       .  A
C62          H78   1.084       .  S
C63          C73   1.404       .  A
C63          C64   1.407       .  A
C64          C70   1.409       .  A
C64          C65   1.417       .  A
C65          C67   1.411       .  A
C65          C66   1.413       .  A
C66          C74   1.407       .  A
C67          C76   1.409       .  A
C67          C68   1.405       .  A
C68          C69   1.402       .  A
C68          H79   1.083       .  S
C69          C70   1.405       .  A
C69          H80   1.083       .  S
C70          C71   1.408       .  A
C71          C72   1.417       .  A
C71          H81   1.084       .  S
C72          C73   1.420       .  A
C73          H82   1.079       .  S
C74          C75   1.405       .  A
C74          H83   1.084       .  S
C75          C76   1.408       .  A
C76          H84   1.084       .  S
C85          C86   1.397       .  A
C85          C90   1.403       .  A
C85         H101   1.084       .  S
C86          C87   1.403       .  A
C86         H102   1.084       .  S
C87          C97   1.399       .  A
C87          C88   1.411       .  A
C88          C94   1.413       .  A
C88          C89   1.412       .  A
C89          C91   1.410       .  A
C89          C90   1.409       .  A
C90          C98   1.399       .  A
C91         C100   1.406       .  A
C91          C92   1.405       .  A
C92          C93   1.401       .  A
C92         H103   1.083       .  S
C93          C94   1.404       .  A
C93         H104   1.083       .  S
C94          C95   1.407       .  A
C95          C96   1.406       .  A
C95         H105   1.084       .  S
C96          C97   1.405       .  A
C97         H106   1.085       .  S
C98          C99   1.413       .  A
C98         H107   1.084       .  S
C99         C100   1.416       .  A
C100        H108   1.081       .  S
C109        C110   1.404       .  A
C109        C114   1.405       .  A
C109        H125   1.083       .  S
C110        C111   1.406       .  A
C110        H126   1.083       .  S
C111        C121   1.411       .  A
C111        C112   1.409       .  A
C112        C118   1.409       .  A
C112        C113   1.417       .  A
C113        C115   1.410       .  A
C113        C114   1.413       .  A
C114        C122   1.413       .  A
C115        C124   1.402       .  A
C115        C116   1.403       .  A
C116        C117   1.398       .  A
C116        H127   1.084       .  S
C117        C118   1.403       .  A
C117        H128   1.084       .  S
C118        C119   1.403       .  A
C119        C120   1.415       .  A
C119        H129   1.084       .  S
C120        C121   1.420       .  A
C121        H130   1.080       .  S
C122        C123   1.409       .  A
C122        H131   1.084       .  S
C123        C124   1.408       .  A
C124        H132   1.084       .  S
C133        C134   1.402       .  A
C133        C138   1.405       .  A
C133        H149   1.083       .  S
C134        C135   1.405       .  A
C134        H150   1.083       .  S
C135        C145   1.406       .  A
C135        C136   1.409       .  A
C136        C142   1.408       .  A
C136        C137   1.412       .  A
C137        C139   1.411       .  A
C137        C138   1.413       .  A
C138        C146   1.408       .  A
C139        C148   1.398       .  A
C139        C140   1.402       .  A
C140        C141   1.396       .  A
C140        H151   1.084       .  S
C141        C142   1.403       .  A
C141        H152   1.084       .  S
C142        C143   1.398       .  A
C143        C144   1.416       .  A
C143        H153   1.082       .  S
C144        C145   1.415       .  A
C145        H154   1.084       .  S
C146        C147   1.405       .  A
C146        H155   1.084       .  S
C147        C148   1.403       .  A
C148        H156   1.085       .  S
C157        C158   1.397       .  A
C157        C162   1.403       .  A
C157        H173   1.084       .  S
C158        C159   1.403       .  A
C158        H174   1.084       .  S
C159        C169   1.401       .  A
C159        C160   1.410       .  A
C160        C166   1.412       .  A
C160        C161   1.415       .  A
C161        C163   1.409       .  A
C161        C162   1.408       .  A
C162        C170   1.400       .  A
C163        C172   1.410       .  A
C163        C164   1.406       .  A
C164        C165   1.404       .  A
C164        H175   1.083       .  S
C165        C166   1.406       .  A
C165        H176   1.083       .  S
C166        C167   1.413       .  A
C167        C168   1.410       .  A
C167        H177   1.084       .  S
C168        C169   1.409       .  A
C169        H178   1.084       .  S
C170        C171   1.417       .  A
C170        H179   1.083       .  S
C171        C172   1.418       .  A
C172        H180   1.083       .  S
C181        C182   1.397       .  A
C181        C186   1.403       .  A
C181        H197   1.084       .  S
C182        C183   1.403       .  A
C182        H198   1.084       .  S
C183        C193   1.401       .  A
C183        C184   1.408       .  A
C184        C190   1.409       .  A
C184        C185   1.417       .  A
C185        C187   1.413       .  A
C185        C186   1.409       .  A
C186        C194   1.401       .  A
C187        C196   1.415       .  A
C187        C188   1.406       .  A
C188        C189   1.405       .  A
C188        H199   1.083       .  S
C189        C190   1.406       .  A
C189        H200   1.083       .  S
C190        C191   1.411       .  A
C191        C192   1.418       .  A
C191        H201   1.082       .  S
C192        C193   1.418       .  A
C193        H202   1.082       .  S
C194        C195   1.410       .  A
C194        H203   1.084       .  S
C195        C196   1.411       .  A
C196        H204   1.084       .  S
C205        C206   1.406       .  A
C205        C210   1.407       .  A
C205        H221   1.083       .  S
C206        C207   1.406       .  A
C206        H222   1.083       .  S
C207        C217   1.417       .  A
C207        C208   1.411       .  A
C208        C214   1.407       .  A
C208        C209   1.420       .  A
C209        C211   1.409       .  A
C209        C210   1.409       .  A
C210        C218   1.414       .  A
C211        C220   1.406       .  A
C211        C212   1.404       .  A
C212        C213   1.400       .  A
C212        H223   1.084       .  S
C213        C214   1.405       .  A
C213        H224   1.084       .  S
C214        C215   1.404       .  A
C215        C216   1.422       .  A
C215        H225   1.082       .  S
C216        C217   1.417       .  A
C217        H226   1.084       .  S
C218        C219   1.419       .  A
C218        H227   1.080       .  S
C219        C220   1.417       .  A
C220        H228   1.084       .  S
C229        C230   1.399       .  A
C229        C234   1.405       .  A
C229        H881   1.084       .  S
C230        C231   1.403       .  A
C230        H246   1.084       .  S
C231        C241   1.405       .  A
C231        C232   1.410       .  A
C232        C238   1.409       .  A
C232        C233   1.419       .  A
C233        C235   1.411       .  A
C233        C234   1.407       .  A
C234        C878   1.403       .  A
C235        C244   1.416       .  A
C235        C236   1.406       .  A
C236        C237   1.406       .  A
C236        H247   1.083       .  S
C237        C238   1.407       .  A
C237        H248   1.083       .  S
C238        C239   1.414       .  A
C239        C240   1.420       .  A
C239        H249   1.080       .  S
C240        C241   1.416       .  A
C241        H250   1.084       .  S
C242        C243   1.422   1_556  A
C242        C870   1.404       .  A
C242        H251   1.082   1_556  S
C243        C880   1.418       .  A
C244        C879   1.417       .  A
C244        H252   1.084       .  S
H245        C865   1.084       .  S
C253        C254   1.397       .  A
C253        C258   1.403       .  A
C253        H269   1.084       .  S
C254        C255   1.403       .  A
C254        H270   1.084       .  S
C255        C265   1.397       .  A
C255        C256   1.407       .  A
C256        C262   1.411       .  A
C256        C257   1.414       .  A
C257        C259   1.412       .  A
C257        C258   1.410       .  A
C258        C266   1.400       .  A
C259        C268   1.411       .  A
C259        C260   1.405       .  A
C260        C261   1.403       .  A
C260        H271   1.083   1_554  S
C261        C262   1.405       .  A
C261        H272   1.083   1_554  S
C262        C263   1.411       .  A
C263        C264   1.416       .  A
C263        H273   1.080       .  S
C264        C265   1.417       .  A
C265        H274   1.085       .  S
C266        C267   1.408       .  A
C266        H275   1.084       .  S
C267        C268   1.408       .  A
C268        H276   1.084       .  S
C277        C278   1.395       .  A
C277        C282   1.403       .  A
C277        H293   1.084       .  S
C278        C279   1.401       .  A
C278        H294   1.084       .  S
C279        C289   1.398       .  A
C279        C280   1.412       .  A
C280        C286   1.412       .  A
C280        C281   1.413       .  A
C281        C283   1.410       .  A
C281        C282   1.407       .  A
C282        C290   1.396       .  A
C283        C292   1.408       .  A
C283        C284   1.405       .  A
C284        C285   1.403       .  A
C284        H295   1.083       .  S
C285        C286   1.405       .  A
C285        H296   1.083       .  S
C286        C287   1.409       .  A
C287        C288   1.406       .  A
C287        H297   1.084       .  S
C288        C289   1.400       .  A
C289        H298   1.085       .  S
C290        C291   1.417       .  A
C290        H299   1.080       .  S
C291        C292   1.417       .  A
C292        H300   1.084       .  S
C301        C302   1.398       .  A
C301        C306   1.403       .  A
C301        H317   1.084       .  S
C302        C303   1.403       .  A
C302        H318   1.084       .  S
C303        C313   1.401       .  A
C303        C304   1.410       .  A
C304        C310   1.409       .  A
C304        C305   1.413       .  A
C305        C307   1.413       .  A
C305        C306   1.410       .  A
C306        C314   1.401       .  A
C307        C316   1.409       .  A
C307        C308   1.404       .  A
C308        C309   1.401       .  A
C308        H319   1.083       .  S
C309        C310   1.405       .  A
C309        H320   1.084       .  S
C310        C311   1.405       .  A
C311        C312   1.417       .  A
C311        H321   1.081       .  S
C312        C313   1.414       .  A
C313        H322   1.084       .  S
C314        C315   1.407       .  A
C314        H323   1.084       .  S
C315        C316   1.408       .  A
C316        H324   1.084       .  S
C325        C326   1.404       .  A
C325        C330   1.406       .  A
C325        H341   1.083       .  S
C326        C327   1.405       .  A
C326        H342   1.083       .  S
C327        C337   1.410       .  A
C327        C328   1.412       .  A
C328        C334   1.411       .  A
C328        C329   1.413       .  A
C329        C331   1.406       .  A
C329        C330   1.411       .  A
C330        C338   1.412       .  A
C331        C340   1.395       .  A
C331        C332   1.403   1_554  A
C332        C333   1.395       .  A
C332        H343   1.084       .  S
C333        C334   1.402   1_556  A
C333        H344   1.084       .  S
C334        C335   1.398   1_554  A
C335        C336   1.405   1_556  A
C335        H345   1.085       .  S
C336        C337   1.407       .  A
C337        H346   1.084       .  S
C338        C339   1.418       .  A
C338        H347   1.078       .  S
C339        C340   1.417       .  A
C340        H348   1.084       .  S
C349        C350   1.399       .  A
C349        C354   1.405       .  A
C349        H365   1.084       .  S
C350        C351   1.403       .  A
C350        H366   1.084       .  S
C351        C361   1.405       .  A
C351        C352   1.410       .  A
C352        C358   1.406       .  A
C352        C353   1.414       .  A
C353        C355   1.411       .  A
C353        C354   1.406       .  A
C354        C362   1.401   1_554  A
C355        C356   1.403       .  A
C355       C1000   1.406   1_554  A
C356        C357   1.400       .  A
C356        H367   1.083   1_554  S
C357        C358   1.405       .  A
C357        H368   1.084       .  S
C358        C359   1.403       .  A
C359        C360   1.419       .  A
C359        H369   1.080       .  S
C360        C361   1.415       .  A
C361        H370   1.084       .  S
C362        C999   1.420       .  A
C362        H371   1.081       .  S
C363        C364   1.414       .  A
C363        C998   1.420       .  A
C364        C991   1.404       .  A
C364        H372   1.084       .  S
C373        C374   1.400       .  A
C373        C378   1.404       .  A
C373        H389   1.084       .  S
C374        C375   1.404       .  A
C374        H390   1.084       .  S
C375        C385   1.406       .  A
C375        C376   1.410       .  A
C376        C382   1.407       .  A
C376        C377   1.415       .  A
C377        C379   1.411       .  A
C377        C378   1.407       .  A
C378        C386   1.401       .  A
C379        C388   1.407       .  A
C379        C380   1.404       .  A
C380        C381   1.400       .  A
C380        H391   1.084       .  S
C381        C382   1.405       .  A
C381        H392   1.084       .  S
C382        C383   1.403       .  A
C383        C384   1.418       .  A
C383        H393   1.083       .  S
C384        C385   1.415       .  A
C385        H394   1.080       .  S
C386        C387   1.417       .  A
C386        H395   1.084       .  S
C387        C388   1.415       .  A
C388        H396   1.081       .  S
C397        C398   1.400       .  A
C397        C402   1.404       .  A
C397        H413   1.084       .  S
C398        C399   1.404       .  A
C398        H414   1.083       .  S
C399        C409   1.406       .  A
C399        C400   1.413       .  A
C400        C406   1.412       .  A
C400        C401   1.414       .  A
C401        C403   1.410       .  A
C401        C402   1.408       .  A
C402        C410   1.402       .  A
C403        C412   1.406       .  A
C403       C1040   1.404       .  A
C404        C405   1.399       .  A
C404       C1039   1.404       .  A
C404        H415   1.084       .  S
C405       C1042   1.403       .  A
C405        H416   1.083       .  S
C406        C407   1.405       .  A
C406       C1041   1.404       .  A
C407        C408   1.404       .  A
C407       H1053   1.084       .  S
C408        C409   1.405       .  A
C409        H418   1.085       .  S
C410        C411   1.416       .  A
C410        H419   1.084       .  S
C411        C412   1.416       .  A
C412        H420   1.080       .  S
H417       C1043   1.084       .  S
C421        C422   1.402       .  A
C421        C426   1.404       .  A
C421        H437   1.083       .  S
C422        C423   1.405       .  A
C422       H1074   1.083       .  S
C423        C433   1.406       .  A
C423        C424   1.409       .  A
C424        C430   1.408       .  A
C424        C425   1.412       .  A
C425        C427   1.410       .  A
C425        C426   1.413       .  A
C426        C434   1.408       .  A
C427        C436   1.397       .  A
C427        C428   1.402       .  A
C428        C429   1.396       .  A
C428        H439   1.084       .  S
C429        C430   1.403       .  A
C429        H440   1.084       .  S
C430        C431   1.399       .  A
C431        C432   1.417       .  A
C431        H441   1.080       .  S
C432        C433   1.416       .  A
C433        H442   1.084       .  S
C434        C435   1.406       .  A
C434        H443   1.084       .  S
C435        C436   1.406       .  A
C436        H444   1.085       .  S
H438       C1058   1.083   1_554  S
C445        C446   1.402       .  A
C445        C450   1.405       .  A
C445        H461   1.084       .  S
C446        C447   1.405       .  A
C446        H462   1.084       .  S
C447        C457   1.403       .  A
C447        C448   1.407       .  A
C448        C454   1.411       .  A
C448        C449   1.415       .  A
C449        C451   1.407       .  A
C449        C450   1.411       .  A
C450       C1094   1.410       .  A
C451        C460   1.401       .  A
C451        C452   1.404       .  A
C452        C453   1.399       .  A
C452        H463   1.084       .  S
C453        C454   1.403       .  A
C453        H464   1.084       .  S
C454        C455   1.406       .  A
C455        C456   1.414       .  A
C455        H465   1.080       .  S
C456        C457   1.419       .  A
C457        H466   1.084       .  S
C458        C459   1.417       .  A
C458       C1086   1.409       .  A
C458        H467   1.080       .  S
C459       C1096   1.417       .  A
C460       C1095   1.417       .  A
C460        H468   1.084       .  S
C469        C470   1.400       .  A
C469        C474   1.404       .  A
C469        H485   1.084       .  S
C470        C471   1.405       .  A
C470        H486   1.084       .  S
C471        C481   1.404       .  A
C471        C472   1.408       .  A
C472        C478   1.409       .  A
C472        C473   1.417       .  A
C473        C475   1.409       .  A
C473        C474   1.409       .  A
C474        C482   1.405       .  A
C475        C484   1.408       .  A
C475        C476   1.405       .  A
C476        C477   1.401       .  A
C476        H487   1.083       .  S
C477        C478   1.404       .  A
C477        H488   1.083       .  S
C478        C479   1.407       .  A
C479        C480   1.416       .  A
C479        H489   1.084       .  S
C480        C481   1.420       .  A
C481        H490   1.080       .  S
C482        C483   1.416       .  A
C482        H491   1.084       .  S
C483        C484   1.419       .  A
C484        H492   1.079       .  S
C493        C494   1.395       .  A
C493        C498   1.403       .  A
C493        H509   1.084       .  S
C494        C495   1.402       .  A
C494       H1146   1.084       .  S
C495        C505   1.397       .  A
C495        C496   1.409       .  A
C496        C502   1.413       .  A
C496        C497   1.415       .  A
C497        C499   1.408       .  A
C497        C498   1.408       .  A
C498        C506   1.398       .  A
C499        C508   1.411       .  A
C499        C500   1.406       .  A
C500        C501   1.406       .  A
C500        H511   1.083       .  S
C501        C502   1.406       .  A
C501        H512   1.083       .  S
C502        C503   1.415       .  A
C503        C504   1.410       .  A
C503        H513   1.084       .  S
C504        C505   1.406       .  A
C505        H514   1.085       .  S
C506        C507   1.416       .  A
C506        H515   1.079       .  S
C507        C508   1.420       .  A
C508        H516   1.084       .  S
H510       C1130   1.084       .  S
C517        C518   1.401       .  A
C517        C522   1.404       .  A
C517        H533   1.084       .  S
C518        C519   1.404       .  A
C518        H534   1.084       .  S
C519        C529   1.404       .  A
C519        C520   1.409       .  A
C520        C526   1.410       .  A
C520        C521   1.414       .  A
C521        C523   1.412       .  A
C521        C522   1.412       .  A
C522        C530   1.405       .  A
C523        C532   1.405       .  A
C523        C524   1.403       .  A
C524        C525   1.400       .  A
C524        H535   1.084       .  S
C525        C526   1.404       .  A
C525        H536   1.084       .  S
C526        C527   1.405       .  A
C527        C528   1.416       .  A
C527        H537   1.081       .  S
C528        C529   1.416       .  A
C529        H538   1.084       .  S
C530        C531   1.406       .  A
C530        H539   1.084       .  S
C531        C532   1.404       .  A
C532        H540   1.085       .  S
C541        C542   1.405       .  A
C541        C546   1.405       .  A
C541        H557   1.083       .  S
C542        C543   1.407       .  A
C542        H558   1.083       .  S
C543        C553   1.413       .  A
C543        C544   1.409       .  A
C544        C550   1.409       .  A
C544        C545   1.421       .  A
C545        C547   1.406       .  A
C545        C546   1.409       .  A
C546        C554   1.414       .  A
C547        C556   1.406       .  A
C547        C548   1.406       .  A
C548        C549   1.400       .  A
C548        H559   1.084       .  S
C549        C550   1.404       .  A
C549        H560   1.084       .  S
C550        C551   1.407       .  A
C551        C552   1.417       .  A
C551        H561   1.084       .  S
C552        C553   1.421       .  A
C553        H562   1.080       .  S
C554        C555   1.421       .  A
C554        H563   1.084       .  S
C555        C556   1.426       .  A
C556        H564   1.079       .  S
C565        C566   1.405       .  A
C565        C570   1.407       .  A
C565       H1217   1.083       .  S
C566        C567   1.406       .  A
C566        H582   1.083       .  S
C567        C577   1.410       .  A
C567        C568   1.407       .  A
C568        C574   1.410       .  A
C568        C569   1.419       .  A
C569        C571   1.403       .  A
C569        C570   1.409       .  A
C570       C1214   1.416       .  A
C571        C580   1.401       .  A
C571        C572   1.405       .  A
C572        C573   1.398       .  A
C572        H583   1.084       .  S
C573        C574   1.403       .  A
C573        H584   1.084       .  S
C574        C575   1.405       .  A
C575        C576   1.416       .  A
C575        H585   1.080       .  S
C576        C577   1.421       .  A
C577        H586   1.084       .  S
C578        C579   1.425       .  A
C578       C1206   1.417   1_554  A
C578        H587   1.079       .  S
C579       C1216   1.419   1_554  A
C580       C1215   1.421       .  A
C580        H588   1.071       .  S
H581       C1201   1.083   1_554  S
C589        C590   1.397       .  A
C589        C594   1.402       .  A
C589        H605   1.084       .  S
C590        C591   1.404   1_556  A
C590        H606   1.084       .  S
C591        C601   1.396       .  A
C591        C592   1.403       .  A
C592        C598   1.407       .  A
C592        C593   1.414       .  A
C593        C595   1.412       .  A
C593        C594   1.411   1_554  A
C594        C602   1.400       .  A
C595        C604   1.410       .  A
C595        C596   1.405       .  A
C596        C597   1.403       .  A
C596        H607   1.083       .  S
C597        C598   1.407       .  A
C597        H608   1.083       .  S
C598        C599   1.412       .  A
C599        C600   1.424       .  A
C599        H609   1.073       .  S
C600        C601   1.421       .  A
C601        H610   1.084       .  S
C602        C603   1.406   1_556  A
C602        H611   1.085       .  S
C603        C604   1.408       .  A
C604        H612   1.084       .  S
C613        C614   1.402       .  A
C613        C618   1.404       .  A
C613        H629   1.083       .  S
C614        C615   1.406       .  A
C614        H630   1.083   1_554  S
C615        C625   1.409       .  A
C615        C616   1.410       .  A
C616        C622   1.409       .  A
C616        C617   1.414       .  A
C617        C619   1.411       .  A
C617        C618   1.413       .  A
C618        C626   1.410       .  A
C619        C628   1.399       .  A
C619        C620   1.402       .  A
C620        C621   1.397       .  A
C620        H631   1.084       .  S
C621        C622   1.403       .  A
C621        H632   1.084       .  S
C622        C623   1.399       .  A
C623        C624   1.416       .  A
C623        H633   1.084       .  S
C624        C625   1.418       .  A
C625        H634   1.081       .  S
C626        C627   1.406       .  A
C626        H635   1.084       .  S
C627        C628   1.405       .  A
C628        H636   1.085       .  S
C637       C1191   1.585       .  S
C637       C1215   1.581       .  S
C637       C1236   1.584       .  S
C637       C1260   1.562       .  S
C638       C1095   1.560   1_556  S
C638       C1116   1.562       .  S
C638       C1143   1.561       .  S
C638       C1164   1.559       .  S
C639        C999   1.558       .  S
C639       C1023   1.557       .  S
C639       C1047   1.555       .  S
C639       C1068   1.556       .  S
O640        C643   1.277       .  A
O640       Cd645   2.523       .  S
C641        O646   1.276       .  A
C641       C1044   1.470       .  S
O642        C648   1.274       .  A
C643       C1140   1.485       .  S
C644        O649   1.273       .  A
C644        C972   1.479       .  S
Cd645       O652   2.410       .  S
Cd645       O646   2.493       .  S
Cd645       O647   2.393       .  S
C648       C1239   1.480       .  S
C653        C927   1.559       .  S
C653        C948   1.560       .  S
C653       C1092   1.559       .  S
C653       C1119   1.561       .  S
C654        C852   1.570       .  S
C654        C879   1.567       .  S
C654        C900   1.559       .  S
C654        C975   1.560       .  S
C655        C807   1.563       .  S
C655        C828   1.560       .  S
C655        C855   1.567       .  S
C655        C876   1.568       .  S
O656        C659   1.276       .  A
O656       Cd661   2.502   1_545  S
C657        O666   1.267       .  A
C657        O662   1.276       .  A
C657        C783   1.472       .  S
O658        C664   1.278       .  A
O658       Cd661   2.511   1_445  S
C659        O667   1.270       .  A
C659        C951   1.486       .  S
C660        O665   1.278       .  A
C660        O663   1.269       .  A
C660        C804   1.492       .  S
Cd661       O668   2.404   1_665  S
Cd661       O667   2.424   1_565  S
Cd661       O666   2.399   1_655  S
Cd661       O662   2.494   1_655  S
Cd661       O665   2.527       .  S
Cd661       O663   2.399       .  S
C664        O668   1.269       .  A
C664        C759   1.488       .  S
C669        C735   1.553       .  S
C669        C780   1.559       .  S
C669        C996   1.562       .  S
C669       C1020   1.556       .  S
O670        C673   1.273       .  A
O670       Cd675   2.502   1_565  S
C671        O680   1.267       .  A
C671        O676   1.273       .  A
C671        C924   1.468       .  S
O672        C678   1.275       .  A
O672       Cd675   2.502   1_565  S
C673        O681   1.266       .  A
C673        C732   1.477       .  S
C674        O679   1.275       .  A
C674        O677   1.266       .  A
C674       C1263   1.478       .  S
Cd675       O682   2.396   1_545  S
Cd675       O681   2.395   1_545  S
Cd675       O680   2.409       .  S
Cd675       O676   2.480       .  S
Cd675       O679   2.511       .  S
Cd675       O677   2.390       .  S
C678        O682   1.267       .  A
C678        C903   1.483       .  S
C683        C708   1.562       .  S
C683        C756   1.564       .  S
C683       C1188   1.567       .  S
C683       C1212   1.566       .  S
O684        C687   1.270       .  A
O684       Cd689   2.507       .  S
C685        O694   1.265       .  A
C685        O690   1.274       .  A
C685       C1071   1.476       .  S
O686        C692   1.273       .  A
O686       Cd689   2.479   1_455  S
C687        O695   1.263       .  A
C687       C1167   1.476       .  S
C688        O693   1.274       .  A
C688        O691   1.264       .  A
C688        C831   1.487       .  S
Cd689       O696   2.445   1_655  S
Cd689       O695   2.444       .  S
Cd689       O694   2.383   1_655  S
Cd689       O690   2.500   1_655  S
Cd689       O693   2.540       .  S
Cd689       O691   2.388       .  S
C692        O696   1.266       .  A
C692        C711   1.476       .  S
C697        C698   1.398       .  A
C697        C702   1.402       .  A
C697        H713   1.084       .  S
C698        C699   1.404       .  A
C698        H714   1.084       .  S
C699        C709   1.402       .  A
C699        C700   1.408       .  A
C700        C706   1.409       .  A
C700        C701   1.415       .  A
C701        C703   1.412       .  A
C701        C702   1.412       .  A
C702        C710   1.403       .  A
C703        C712   1.408       .  A
C703        C704   1.405       .  A
C704        C705   1.403       .  A
C704        H715   1.083       .  S
C705        C706   1.405       .  A
C705        H716   1.083       .  S
C706        C707   1.408       .  A
C707        C708   1.418       .  A
C707        H717   1.084       .  S
C708        C709   1.418       .  A
C709        H718   1.078       .  S
C710        C711   1.403       .  A
C710        H719   1.085       .  S
C711        C712   1.408       .  A
C712        H720   1.084       .  S
C721        C722   1.395       .  A
C721        C726   1.402       .  A
C721        H737   1.084       .  S
C722        C723   1.402       .  A
C722        H738   1.084       .  S
C723        C733   1.397       .  A
C723        C724   1.410       .  A
C724        C730   1.413       .  A
C724        C725   1.412       .  A
C725        C727   1.410       .  A
C725        C726   1.409       .  A
C726        C734   1.396       .  A
C727        C736   1.408       .  A
C727        C728   1.406       .  A
C728        C729   1.403       .  A
C728        H739   1.083       .  S
C729        C730   1.405       .  A
C729        H740   1.083       .  S
C730        C731   1.410       .  A
C731        C732   1.408       .  A
C731        H741   1.084       .  S
C732        C733   1.404       .  A
C733        H742   1.085       .  S
C734        C735   1.412       .  A
C734        H743   1.084       .  S
C735        C736   1.418       .  A
C736        H744   1.081       .  S
C745        C746   1.403       .  A
C745        C750   1.404       .  A
C745        H761   1.083       .  S
C746        C747   1.406       .  A
C746        H762   1.083       .  S
C747        C757   1.409       .  A
C747        C748   1.408       .  A
C748        C754   1.409       .  A
C748        C749   1.416       .  A
C749        C751   1.410       .  A
C749        C750   1.413       .  A
C750        C758   1.412       .  A
C751        C760   1.402       .  A
C751        C752   1.404       .  A
C752        C753   1.399       .  A
C752        H763   1.084       .  S
C753        C754   1.403       .  A
C753        H764   1.084       .  S
C754        C755   1.403       .  A
C755        C756   1.417       .  A
C755        H765   1.084       .  S
C756        C757   1.419       .  A
C757        H766   1.080       .  S
C758        C759   1.408       .  A
C758        H767   1.084       .  S
C759        C760   1.409       .  A
C760        H768   1.084       .  S
C769        C770   1.402       .  A
C769        C774   1.405       .  A
C769        H785   1.083       .  S
C770        C771   1.404       .  A
C770        H786   1.083       .  S
C771        C781   1.407       .  A
C771        C772   1.410       .  A
C772        C778   1.408       .  A
C772        C773   1.413       .  A
C773        C775   1.412       .  A
C773        C774   1.412       .  A
C774        C782   1.408       .  A
C775        C784   1.401       .  A
C775        C776   1.402       .  A
C776        C777   1.397       .  A
C776        H787   1.084       .  S
C777        C778   1.404       .  A
C777        H788   1.084       .  S
C778        C779   1.399       .  A
C779        C780   1.418       .  A
C779        H789   1.082       .  S
C780        C781   1.415       .  A
C781        H790   1.084       .  S
C782        C783   1.405       .  A
C782        H791   1.084       .  S
C783        C784   1.403       .  A
C784        H792   1.085       .  S
C793        C794   1.396       .  A
C793        C798   1.403       .  A
C793        H809   1.084       .  S
C794        C795   1.403       .  A
C794        H810   1.084       .  S
C795        C805   1.399       .  A
C795        C796   1.409       .  A
C796        C802   1.413       .  A
C796        C797   1.416       .  A
C797        C799   1.409       .  A
C797        C798   1.408       .  A
C798        C806   1.400       .  A
C799        C808   1.412       .  A
C799        C800   1.406       .  A
C800        C801   1.406       .  A
C800        H811   1.083       .  S
C801        C802   1.406       .  A
C801        H812   1.083       .  S
C802        C803   1.415       .  A
C803        C804   1.411       .  A
C803        H813   1.084       .  S
C804        C805   1.409       .  A
C805        H814   1.084       .  S
C806        C807   1.417       .  A
C806        H815   1.082       .  S
C807        C808   1.419       .  A
C808        H816   1.083       .  S
C817        C818   1.395       .  A
C817        C822   1.402       .  A
C817        H833   1.084       .  S
C818        C819   1.402       .  A
C818        H834   1.084       .  S
C819        C829   1.398       .  A
C819        C820   1.408       .  A
C820        C826   1.409       .  A
C820        C821   1.414       .  A
C821        C823   1.413       .  A
C821        C822   1.409       .  A
C822        C830   1.396       .  A
C823        C832   1.415       .  A
C823        C824   1.406       .  A
C824        C825   1.406       .  A
C824        H835   1.083       .  S
C825        C826   1.407       .  A
C825        H836   1.083       .  S
C826        C827   1.412       .  A
C827        C828   1.419       .  A
C827        H837   1.083       .  S
C828        C829   1.417       .  A
C829        H838   1.082       .  S
C830        C831   1.408       .  A
C830        H839   1.084       .  S
C831        C832   1.411       .  A
C832        H840   1.084       .  S
C841        C842   1.407       .  A
C841        C846   1.407       .  A
C841        H857   1.083       .  S
C842        C843   1.406       .  A
C842        H858   1.083       .  S
C843        C853   1.418       .  A
C843        C844   1.411       .  A
C844        C850   1.406       .  A
C844        C845   1.419       .  A
C845        C847   1.409       .  A
C845        C846   1.409       .  A
C846        C854   1.415       .  A
C847        C856   1.404       .  A
C847        C848   1.403       .  A
C848        C849   1.398       .  A
C848        H859   1.084       .  S
C849        C850   1.404       .  A
C849        H860   1.084       .  S
C850        C851   1.401       .  A
C851        C852   1.420       .  A
C851        H861   1.082       .  S
C852        C853   1.418       .  A
C853        H862   1.084       .  S
C854        C855   1.420       .  A
C854        H863   1.080       .  S
C855        C856   1.415       .  A
C856        H864   1.084       .  S
C865        C866   1.399       .  A
C865        C870   1.405       .  A
C866        C867   1.403       .  A
C866        H882   1.084       .  S
C867        C877   1.406       .  A
C867        C868   1.410       .  A
C868        C874   1.409       .  A
C868        C869   1.421       .  A
C869        C871   1.411       .  A
C869        C870   1.406       .  A
C871        C880   1.417   1_556  A
C871        C872   1.406       .  A
C872        C873   1.406       .  A
C872        H883   1.083       .  S
C873        C874   1.407       .  A
C873        H884   1.083       .  S
C874        C875   1.415       .  A
C875        C876   1.420       .  A
C875        H885   1.080       .  S
C876        C877   1.416       .  A
C877        H886   1.084       .  S
C878        C879   1.420       .  A
C878        H887   1.082       .  S
C880        H888   1.084       .  S
C889        C890   1.396       .  A
C889        C894   1.403       .  A
C889        H905   1.084       .  S
C890        C891   1.403       .  A
C890        H906   1.084       .  S
C891        C901   1.396       .  A
C891        C892   1.407       .  A
C892        C898   1.410       .  A
C892        C893   1.413       .  A
C893        C895   1.412       .  A
C893        C894   1.410       .  A
C894        C902   1.398       .  A
C895        C904   1.409       .  A
C895        C896   1.405       .  A
C896        C897   1.403       .  A
C896        H907   1.083       .  S
C897        C898   1.405       .  A
C897        H908   1.083       .  S
C898        C899   1.409       .  A
C899        C900   1.416       .  A
C899        H909   1.080       .  S
C900        C901   1.416       .  A
C901        H910   1.085       .  S
C902        C903   1.408       .  A
C902        H911   1.084       .  S
C903        C904   1.408       .  A
C904        H912   1.084       .  S
C913        C914   1.395       .  A
C913        C918   1.403       .  A
C913        H929   1.084       .  S
C914        C915   1.401       .  A
C914        H930   1.084       .  S
C915        C925   1.399       .  A
C915        C916   1.412       .  A
C916        C922   1.412       .  A
C916        C917   1.413       .  A
C917        C919   1.410       .  A
C917        C918   1.407       .  A
C918        C926   1.397       .  A
C919        C928   1.408       .  A
C919        C920   1.405       .  A
C920        C921   1.403       .  A
C920        H931   1.083       .  S
C921        C922   1.405       .  A
C921        H932   1.083       .  S
C922        C923   1.408       .  A
C923        C924   1.406       .  A
C923        H933   1.084       .  S
C924        C925   1.401       .  A
C925        H934   1.085       .  S
C926        C927   1.418       .  A
C926        H935   1.080       .  S
C927        C928   1.417       .  A
C928        H936   1.084       .  S
C937        C938   1.399       .  A
C937        C942   1.404       .  A
C937        H953   1.083       .  S
C938        C939   1.403       .  A
C938        H954   1.084       .  S
C939        C949   1.403       .  A
C939        C940   1.410       .  A
C940        C946   1.409       .  A
C940        C941   1.415       .  A
C941        C943   1.413       .  A
C941        C942   1.410       .  A
C942        C950   1.403       .  A
C943        C952   1.410       .  A
C943        C944   1.405       .  A
C944        C945   1.402       .  A
C944        H955   1.083       .  S
C945        C946   1.405       .  A
C945        H956   1.084       .  S
C946        C947   1.406       .  A
C947        C948   1.418       .  A
C947        H957   1.081       .  S
C948        C949   1.415       .  A
C949        H958   1.084       .  S
C950        C951   1.408       .  A
C950        H959   1.084       .  S
C951        C952   1.409       .  A
C952        H960   1.084       .  S
C961        C962   1.404       .  A
C961        C966   1.406       .  A
C961        H977   1.083       .  S
C962        C963   1.405       .  A
C962        H978   1.083       .  S
C963        C973   1.410       .  A
C963        C964   1.412       .  A
C964        C970   1.411       .  A
C964        C965   1.413       .  A
C965        C967   1.406       .  A
C965        C966   1.411       .  A
C966        C974   1.412       .  A
C967        C976   1.395       .  A
C967        C968   1.403       .  A
C968        C969   1.395       .  A
C968        H979   1.084       .  S
C969        C970   1.402       .  A
C969        H980   1.084       .  S
C970        C971   1.398       .  A
C971        C972   1.405       .  A
C971        H981   1.085       .  S
C972        C973   1.408       .  A
C973        H982   1.084       .  S
C974        C975   1.417       .  A
C974        H983   1.079       .  S
C975        C976   1.417       .  A
C976        H984   1.084       .  S
C985        C986   1.401       .  A
C985        C990   1.405       .  A
C985       H1001   1.084       .  S
C986        C987   1.404       .  A
C986       H1002   1.083       .  S
C987        C997   1.407       .  A
C987        C988   1.409       .  A
C988        C994   1.407       .  A
C988        C989   1.415       .  A
C989        C991   1.410       .  A
C989        C990   1.408       .  A
C990        C998   1.405       .  A
C991        C992   1.403       .  A
C992        C993   1.399       .  A
C992       H1003   1.084       .  S
C993        C994   1.405       .  A
C993       H1004   1.084       .  S
C994        C995   1.404       .  A
C995        C996   1.419       .  A
C995       H1005   1.080       .  S
C996        C997   1.417       .  A
C997       H1006   1.084       .  S
C998       H1007   1.081       .  S
C999       C1000   1.414       .  A
C1000      H1008   1.084       .  S
C1009      C1010   1.399       .  A
C1009      C1014   1.404       .  A
C1009      H1025   1.084       .  S
C1010      C1011   1.404       .  A
C1010      H1026   1.084       .  S
C1011      C1021   1.405       .  A
C1011      C1012   1.411       .  A
C1012      C1018   1.407       .  A
C1012      C1013   1.415       .  A
C1013      C1015   1.412       .  A
C1013      C1014   1.406       .  A
C1014      C1022   1.400       .  A
C1015      C1024   1.409       .  A
C1015      C1016   1.404       .  A
C1016      C1017   1.401       .  A
C1016      H1027   1.083       .  S
C1017      C1018   1.405       .  A
C1017      H1028   1.083       .  S
C1018      C1019   1.404       .  A
C1019      C1020   1.418       .  A
C1019      H1029   1.083       .  S
C1020      C1021   1.415       .  A
C1021      H1030   1.080       .  S
C1022      C1023   1.417       .  A
C1022      H1031   1.084       .  S
C1023      C1024   1.415       .  A
C1024      H1032   1.080       .  S
C1033      C1034   1.400       .  A
C1033      C1038   1.404       .  A
C1033      H1049   1.084       .  S
C1034      C1035   1.404       .  A
C1034      H1050   1.084       .  S
C1035      C1045   1.406       .  A
C1035      C1036   1.412       .  A
C1036      C1042   1.412       .  A
C1036      C1037   1.413       .  A
C1037      C1039   1.410       .  A
C1037      C1038   1.408       .  A
C1038      C1046   1.402       .  A
C1039      C1048   1.405       .  A
C1040      C1041   1.400       .  A
C1040      H1051   1.084       .  S
C1041      H1052   1.083       .  S
C1042      C1043   1.404       .  A
C1043      C1044   1.402       .  A
C1044      C1045   1.405       .  A
C1045      H1054   1.085       .  S
C1046      C1047   1.416       .  A
C1046      H1055   1.084       .  S
C1047      C1048   1.415       .  A
C1048      H1056   1.081       .  S
C1057      C1058   1.402       .  A
C1057      C1062   1.404       .  A
C1057      H1073   1.083   1_556  S
C1058      C1059   1.405       .  A
C1059      C1069   1.406       .  A
C1059      C1060   1.409       .  A
C1060      C1066   1.408       .  A
C1060      C1061   1.411       .  A
C1061      C1063   1.410       .  A
C1061      C1062   1.413       .  A
C1062      C1070   1.408       .  A
C1063      C1072   1.397       .  A
C1063      C1064   1.402       .  A
C1064      C1065   1.396       .  A
C1064      H1075   1.084       .  S
C1065      C1066   1.403       .  A
C1065      H1076   1.084       .  S
C1066      C1067   1.398       .  A
C1067      C1068   1.416       .  A
C1067      H1077   1.081       .  S
C1068      C1069   1.416       .  A
C1069      H1078   1.084       .  S
C1070      C1071   1.406       .  A
C1070      H1079   1.084       .  S
C1071      C1072   1.406       .  A
C1072      H1080   1.085       .  S
C1081      C1082   1.402       .  A
C1081      C1086   1.405       .  A
C1081      H1097   1.083       .  S
C1082      C1083   1.405       .  A
C1082      H1098   1.084       .  S
C1083      C1093   1.404       .  A
C1083      C1084   1.407       .  A
C1084      C1090   1.411       .  A
C1084      C1085   1.415       .  A
C1085      C1087   1.407       .  A
C1085      C1086   1.411       .  A
C1087      C1096   1.401       .  A
C1087      C1088   1.404       .  A
C1088      C1089   1.399       .  A
C1088      H1099   1.084       .  S
C1089      C1090   1.404       .  A
C1089      H1100   1.084       .  S
C1090      C1091   1.406       .  A
C1091      C1092   1.415       .  A
C1091      H1101   1.080       .  S
C1092      C1093   1.419       .  A
C1093      H1102   1.083       .  S
C1094      C1095   1.417       .  A
C1094      H1103   1.080   1_554  S
C1096      H1104   1.084       .  S
C1105      C1106   1.400       .  A
C1105      C1110   1.404       .  A
C1105      H1121   1.084       .  S
C1106      C1107   1.405       .  A
C1106      H1122   1.084       .  S
C1107      C1117   1.404       .  A
C1107      C1108   1.408       .  A
C1108      C1114   1.409       .  A
C1108      C1109   1.417       .  A
C1109      C1111   1.409       .  A
C1109      C1110   1.409       .  A
C1110      C1118   1.404       .  A
C1111      C1120   1.410       .  A
C1111      C1112   1.406       .  A
C1112      C1113   1.402       .  A
C1112      H1123   1.083       .  S
C1113      C1114   1.404       .  A
C1113      H1124   1.083       .  S
C1114      C1115   1.408       .  A
C1115      C1116   1.417       .  A
C1115      H1125   1.084       .  S
C1116      C1117   1.419       .  A
C1117      H1126   1.080       .  S
C1118      C1119   1.416       .  A
C1118      H1127   1.084       .  S
C1119      C1120   1.419       .  A
C1120      H1128   1.080       .  S
C1129      C1130   1.396       .  A
C1129      C1134   1.403   1_554  A
C1129      H1145   1.084       .  S
C1130      C1131   1.403   1_554  A
C1131      C1141   1.399       .  A
C1131      C1132   1.409       .  A
C1132      C1138   1.413       .  A
C1132      C1133   1.414       .  A
C1133      C1135   1.408       .  A
C1133      C1134   1.409       .  A
C1134      C1142   1.400       .  A
C1135      C1144   1.408       .  A
C1135      C1136   1.405       .  A
C1136      C1137   1.404       .  A
C1136      H1147   1.083       .  S
C1137      C1138   1.405       .  A
C1137      H1148   1.083       .  S
C1138      C1139   1.413       .  A
C1139      C1140   1.409       .  A
C1139      H1149   1.084       .  S
C1140      C1141   1.407       .  A
C1141      H1150   1.085   1_556  S
C1142      C1143   1.417       .  A
C1142      H1151   1.079   1_556  S
C1143      C1144   1.418       .  A
C1144      H1152   1.084       .  S
C1153      C1154   1.401       .  A
C1153      C1158   1.404       .  A
C1153      H1169   1.084       .  S
C1154      C1155   1.404       .  A
C1154      H1170   1.084       .  S
C1155      C1165   1.405       .  A
C1155      C1156   1.409       .  A
C1156      C1162   1.409       .  A
C1156      C1157   1.415       .  A
C1157      C1159   1.412       .  A
C1157      C1158   1.412       .  A
C1158      C1166   1.406       .  A
C1159      C1168   1.406       .  A
C1159      C1160   1.404       .  A
C1160      C1161   1.400       .  A
C1160      H1171   1.083       .  S
C1161      C1162   1.405       .  A
C1161      H1172   1.084       .  S
C1162      C1163   1.405       .  A
C1163      C1164   1.417       .  A
C1163      H1173   1.080       .  S
C1164      C1165   1.416       .  A
C1165      H1174   1.084       .  S
C1166      C1167   1.406       .  A
C1166      H1175   1.084       .  S
C1167      C1168   1.405       .  A
C1168      H1176   1.085       .  S
C1177      C1178   1.405       .  A
C1177      C1182   1.405       .  A
C1177      H1193   1.083       .  S
C1178      C1179   1.407       .  A
C1178      H1194   1.083       .  S
C1179      C1189   1.413       .  A
C1179      C1180   1.408       .  A
C1180      C1186   1.409       .  A
C1180      C1181   1.420       .  A
C1181      C1183   1.405       .  A
C1181      C1182   1.409       .  A
C1182      C1190   1.414       .  A
C1183      C1192   1.404       .  A
C1183      C1184   1.405       .  A
C1184      C1185   1.399       .  A
C1184      H1195   1.084       .  S
C1185      C1186   1.403       .  A
C1185      H1196   1.084       .  S
C1186      C1187   1.405       .  A
C1187      C1188   1.416       .  A
C1187      H1197   1.084       .  S
C1188      C1189   1.422       .  A
C1189      H1198   1.080       .  S
C1190      C1191   1.421       .  A
C1190      H1199   1.084       .  S
C1191      C1192   1.426       .  A
C1192      H1200   1.079       .  S
C1201      C1202   1.406       .  A
C1201      C1206   1.407       .  A
C1202      C1203   1.406       .  A
C1202      H1218   1.083       .  S
C1203      C1213   1.410       .  A
C1203      C1204   1.407       .  A
C1204      C1210   1.410       .  A
C1204      C1205   1.419       .  A
C1205      C1207   1.403       .  A
C1205      C1206   1.409       .  A
C1207      C1216   1.398       .  A
C1207      C1208   1.405       .  A
C1208      C1209   1.397       .  A
C1208      H1219   1.085       .  S
C1209      C1210   1.403       .  A
C1209      H1220   1.084       .  S
C1210      C1211   1.405       .  A
C1211      C1212   1.416       .  A
C1211      H1221   1.079       .  S
C1212      C1213   1.421       .  A
C1213      H1222   1.084       .  S
C1214      C1215   1.425       .  A
C1214      H1223   1.080       .  S
C1216      H1224   1.083       .  S
C1225      C1226   1.396       .  A
C1225      C1230   1.402       .  A
C1225      H1241   1.084       .  S
C1226      C1227   1.404       .  A
C1226      H1242   1.084       .  S
C1227      C1237   1.397       .  A
C1227      C1228   1.404       .  A
C1228      C1234   1.407       .  A
C1228      C1229   1.414       .  A
C1229      C1231   1.412       .  A
C1229      C1230   1.411       .  A
C1230      C1238   1.399       .  A
C1231      C1240   1.411       .  A
C1231      C1232   1.405       .  A
C1232      C1233   1.404       .  A
C1232      H1243   1.083       .  S
C1233      C1234   1.407       .  A
C1233      H1244   1.083       .  S
C1234      C1235   1.413       .  A
C1235      C1236   1.424       .  A
C1235      H1245   1.072       .  S
C1236      C1237   1.423       .  A
C1237      H1246   1.082       .  S
C1238      C1239   1.405       .  A
C1238      H1247   1.085       .  S
C1239      C1240   1.408       .  A
C1240      H1248   1.084       .  S
C1249      C1250   1.403       .  A
C1249      C1254   1.404       .  A
C1249      H1265   1.083       .  S
C1250      C1251   1.406       .  A
C1250      H1266   1.083       .  S
C1251      C1261   1.410       .  A
C1251      C1252   1.410       .  A
C1252      C1258   1.409       .  A
C1252      C1253   1.414       .  A
C1253      C1255   1.410       .  A
C1253      C1254   1.413       .  A
C1254      C1262   1.411       .  A
C1255      C1264   1.399       .  A
C1255      C1256   1.402       .  A
C1256      C1257   1.397       .  A
C1256      H1267   1.084       .  S
C1257      C1258   1.403       .  A
C1257      H1268   1.084       .  S
C1258      C1259   1.399       .  A
C1259      C1260   1.416       .  A
C1259      H1269   1.084       .  S
C1260      C1261   1.418       .  A
C1261      H1270   1.081       .  S
C1262      C1263   1.407       .  A
C1262      H1271   1.084       .  S
C1263      C1264   1.405       .  A
C1264      H1272   1.085       .  S
