geometry optimzed in LAMMPS
_audit_creation_date              2020-11-30 
_audit_creation_method            'lammps2cif' 
_symmetry_space_group_name_H-M    'P1' 
_symmetry_Int_Tables_number       1 
_symmetry_cell_setting            triclinic 
loop_ 
_symmetry_equiv_pos_as_xyz 
  x,y,z 
_cell_length_a                    38.99230369 
_cell_length_b                    38.90014244656689 
_cell_length_c                    54.05785118111513 
_cell_angle_alpha                 90.01634659858411 
_cell_angle_beta                  89.80110914143631 
_cell_angle_gamma                 119.93243960946506 
loop_ 
_atom_site_label 
_atom_site_type_symbol 
_atom_site_fract_x 
_atom_site_fract_y 
_atom_site_fract_z 
_atom_site_charge 
C1          C  0.00508728  0.82431519  0.72304896     0.87100
C2          C  0.96730915  0.82819218  0.72575160    -0.53100
C3          C  0.96547979  0.84735629  0.74693933     0.10000
C4          C  0.00086919  0.85768638  0.76445105     0.21000
C5          C  0.03842953  0.86815974  0.72637916    -0.53800
C6          C  0.03663736  0.88542051  0.74819195     0.10100
C7          C  0.00482997  0.80259126  0.74643957    -0.53400
C8          C  0.00316894  0.81932796  0.76794075     0.10700
H9          H  0.94694047  0.82150785  0.71068879     0.15200
H10         H  0.00009496  0.87118607  0.78231039     0.01000
H11         H  0.05776090  0.88583666  0.71145801     0.15500
H12         H  0.00637672  0.77542663  0.74604345     0.15300
C13         C  0.91425503  0.90735057  0.72814502     0.87100
C14         C  0.95651587  0.94330675  0.73268924    -0.53100
C15         C  0.97550190  0.94024742  0.75328134     0.10000
C16         C  0.94956931  0.90129471  0.76794199     0.21000
C17         C  0.92237928  0.87236462  0.72782090    -0.53800
C18         C  0.94174845  0.86893712  0.74821296     0.10100
C19         C  0.89249228  0.90383105  0.75216962    -0.53400
C20         C  0.90918196  0.89950779  0.77294516     0.10700
H21         H  0.97218709  0.96685729  0.71962468     0.15200
H22         H  0.96350478  0.89898494  0.78517719     0.01000
H23         H  0.91924688  0.85672619  0.71077565     0.15500
H24         H  0.86460024  0.90384454  0.75267180     0.15300
C25         C  0.08214918  0.98782547  0.77942163     0.87100
C26         C  0.03894560  0.98014694  0.77742948    -0.53100
C27         C  0.02007825  0.96310414  0.75554821     0.10000
C28         C  0.04701716  0.95644267  0.73721054     0.21000
C29         C  0.07560375  0.94575307  0.77439221    -0.53800
C30         C  0.05780175  0.92935452  0.75223358     0.10100
C31         C  0.10305444  0.01257820  0.75657544    -0.53400
C32         C  0.08597559  0.99689191  0.73458242     0.10700
H33         H  0.02283740  0.98283625  0.79291909     0.22400
H34         H  0.03256448  0.94329862  0.71928753     0.01000
H35         H  0.07763397  0.92758020  0.78882227     0.15500
H36         H  0.13060296  0.04073145  0.75771890     0.15300
In37       In  0.67052089  0.58317849  0.06633736     1.36900
C38         C  0.71268701  0.62919977  0.10449081     0.78200
O39         O  0.71001461  0.55691863  0.06547748    -0.60200
O40         O  0.71581299  0.59800289  0.03752319    -0.51200
C41         C  0.61311303  0.51190227  0.05240717     0.70900
O42         O  0.61612679  0.52321761  0.07480331    -0.46000
C43         C  0.63603498  0.62111450  0.04858704     0.75600
O44         O  0.68747366  0.59268897  0.10752717    -0.57900
O45         O  0.66840854  0.62574003  0.04041544    -0.48000
O46         O  0.71380136  0.64105632  0.08269617    -0.54300
C47         C  0.72716873  0.57497873  0.04580992     0.85800
O48         O  0.63949011  0.53660102  0.03820333    -0.56200
O49         O  0.62129543  0.59750295  0.06666169    -0.59500
In50       In  0.00901687  0.58016001  0.92769586     1.36900
C51         C  0.00803982  0.62625153  0.89114798     0.78200
O52         O  0.94313019  0.55087610  0.93060852    -0.60200
O53         O  0.97939980  0.59322528  0.95767044    -0.51200
C54         C  0.00048171  0.51313897  0.94657422     0.70900
O55         O  0.99603849  0.51591790  0.92339460    -0.46000
C56         C  0.08311469  0.62307294  0.94016076     0.75600
O57         O  0.00527904  0.59283130  0.88641613    -0.57900
O58         O  0.05559465  0.62611418  0.95032406    -0.48000
O59         O  0.01138015  0.63436480  0.91386226    -0.54300
C60         C  0.94481275  0.56942120  0.95023397     0.85800
O61         O  0.01035680  0.54449088  0.95837544    -0.56200
O62         O  0.07308432  0.59876481  0.92236456    -0.59500
In63       In  0.66147519  0.88585945  0.93356021     1.36900
C64         C  0.70318631  0.87839817  0.89646328     0.78200
O65         O  0.70658769  0.94979698  0.93100202    -0.60200
O66         O  0.71220105  0.91411602  0.95908315    -0.51200
C67         C  0.60850653  0.90497342  0.95073164     0.70900
O68         O  0.61006961  0.89773404  0.92788496    -0.46000
C69         C  0.62034138  0.81228857  0.94847543     0.75600
O70         O  0.67982221  0.89192708  0.89278288    -0.57900
O71         O  0.64935071  0.83877604  0.96039266    -0.48000
O72         O  0.70161291  0.86606482  0.91824984    -0.54300
C73         C  0.72689446  0.94754491  0.94851718     0.85800
O74         O  0.63532404  0.90473421  0.96357372    -0.56200
O75         O  0.61239942  0.82314960  0.92825877    -0.59500
In76       In  0.01817246  0.23177334  0.05304961     1.36900
C77         C  0.01288512  0.18213607  0.08961860     0.78200
O78         O  0.95485344  0.18841254  0.04653847    -0.60200
O79         O  0.99822853  0.18970468  0.02176668    -0.51200
C80         C  0.00119311  0.28737642  0.03897997     0.70900
O81         O  0.00923109  0.28461756  0.06144897    -0.46000
C82         C  0.09291340  0.27550823  0.04058402     0.75600
O83         O  0.99896273  0.20534236  0.09226791    -0.57900
O84         O  0.06889661  0.24497584  0.02874767    -0.48000
O85         O  0.03249461  0.18819423  0.06998058    -0.54300
C86         C  0.96204884  0.17419931  0.02741823     0.85800
O87         O  0.00019617  0.26112984  0.02498713    -0.56200
O88         O  0.07944294  0.28263350  0.06002546    -0.59500
In89       In  0.31161794  0.23681346  0.94447957     1.36900
C90         C  0.26855353  0.18836183  0.90764227     0.78200
O91         O  0.33529669  0.19676561  0.95058746    -0.60200
O92         O  0.28981656  0.19289864  0.97477350    -0.51200
C93         C  0.37981236  0.28889462  0.96490601     0.70900
O94         O  0.37737692  0.28193323  0.94170415    -0.46000
C95         C  0.28362704  0.28469577  0.94953343     0.75600
O96         O  0.30422485  0.21585373  0.90437342    -0.57900
O97         O  0.27228147  0.25408553  0.96278851    -0.48000
O98         O  0.25536761  0.18753132  0.92913666    -0.54300
C99         C  0.31296242  0.18009574  0.96906541     0.85800
O100        O  0.34775051  0.26960713  0.97663959    -0.56200
O101        O  0.30741478  0.28945669  0.93213758    -0.59500
In102      In  0.31369669  0.88556526  0.06516230     1.36900
C103        C  0.26522565  0.88187615  0.10172924     0.78200
O104        O  0.33656852  0.95070288  0.06535441    -0.60200
O105        O  0.29586535  0.91468039  0.03740567    -0.51200
C106        C  0.38593369  0.90077780  0.05088091     0.70900
O107        O  0.37374563  0.88950354  0.07290370    -0.46000
C108        C  0.27914475  0.81519953  0.04526099     0.75600
O109        O  0.30174405  0.89436487  0.10573103    -0.57900
O110        O  0.27874068  0.84451538  0.03567933    -0.48000
O111        O  0.25425360  0.86802334  0.08037060    -0.54300
C112        C  0.31719326  0.94895976  0.04616802     0.85800
O113        O  0.36211975  0.90573719  0.03783759    -0.56200
O114        O  0.29552939  0.82103386  0.06621048    -0.59500
C115        C  0.90917109  0.82002995  0.27698933     0.87100
C116        C  0.95025375  0.82322977  0.27499634    -0.53100
C117        C  0.97187193  0.84233547  0.25412013     0.10000
C118        C  0.94721731  0.85181220  0.23549385     0.21000
C119        C  0.91744790  0.86281577  0.27202322    -0.53800
C120        C  0.93733059  0.87943130  0.25032690     0.10100
C121        C  0.88874953  0.79654859  0.25372195    -0.53400
C122        C  0.90712239  0.81297246  0.23201954     0.10700
H123        H  0.96183661  0.81258157  0.28930340     0.15200
H124        H  0.96214378  0.86524257  0.21778413     0.01000
H125        H  0.91118904  0.87958182  0.28557394     0.15500
H126        H  0.86057946  0.76896362  0.25415591     0.15300
C127        C  0.99699519  0.98125060  0.21817342     0.87100
C128        C  0.03056330  0.97163266  0.22140626    -0.53100
C129        C  0.03107194  0.95579922  0.24385369     0.10000
C130        C  0.99666784  0.94966673  0.26120746     0.21000
C131        C  0.95969255  0.93974126  0.22304381    -0.53800
C132        C  0.95974106  0.92313556  0.24562996     0.10100
C133        C  0.99847372  0.00574413  0.24059894    -0.53400
C134        C  0.99800212  0.98991282  0.26299406     0.10700
H135        H  0.04818404  0.97102971  0.20608081     0.15200
H136        H  0.99657948  0.93639625  0.27941046     0.01000
H137        H  0.93842414  0.92243381  0.20886366     0.15500
H138        H  0.99789895  0.03331418  0.23881565     0.15300
C139        C  0.08156902  0.90451074  0.27496475     0.87100
C140        C  0.07386753  0.93877686  0.26896955    -0.53100
C141        C  0.05348635  0.93441894  0.24763620     0.10000
C142        C  0.04206069  0.89530777  0.23393740     0.21000
C143        C  0.03872131  0.86821036  0.27505298    -0.53800
C144        C  0.01694390  0.86375918  0.25385619     0.10100
C145        C  0.10010521  0.89756884  0.25206294    -0.53400
C146        C  0.08084667  0.89358535  0.23060231     0.10700
H147        H  0.07764589  0.96071386  0.28262658     0.15200
H148        H  0.02686428  0.89228892  0.21613467     0.01000
H149        H  0.02493441  0.85130533  0.29161356     0.15500
H150        H  0.12747229  0.89655719  0.25272195     0.15300
In151      In  0.68239536  0.58278895  0.44575183     1.36900
C152        C  0.72105576  0.62589043  0.40598607     0.78200
O153        O  0.65669507  0.62202815  0.44997856    -0.60200
O154        O  0.70439481  0.63156277  0.47337400    -0.51200
C155        C  0.61469229  0.52721524  0.46648357     0.70900
O156        O  0.61786671  0.53223737  0.44309704    -0.46000
C157        C  0.71918014  0.54376643  0.45566314     0.75600
O158        O  0.68507062  0.59842196  0.40463463    -0.57900
O159        O  0.72627741  0.57517638  0.46680101    -0.48000
O160        O  0.73689533  0.62872617  0.42671307    -0.54300
C161        C  0.67999911  0.64237499  0.46715787     0.85800
O162        O  0.64571543  0.55027904  0.47808445    -0.56200
O163        O  0.69465278  0.53321467  0.43807281    -0.59500
In164      In  0.98664476  0.56718146  0.56252365     1.36900
C165        C  0.99230604  0.61613108  0.59980609     0.78200
O166        O  0.05247740  0.59982379  0.56175793    -0.60200
O167        O  0.02056412  0.61195622  0.53420025    -0.51200
C168        C  0.99446709  0.50848675  0.54248928     0.70900
O169        O  0.99303844  0.51173823  0.56593987    -0.46000
C170        C  0.91181609  0.53510151  0.55081438     0.75600
O171        O  0.99389757  0.58462705  0.60380674    -0.57900
O172        O  0.93886243  0.56511549  0.53982145    -0.48000
O173        O  0.98640619  0.62065863  0.57740768    -0.54300
C174        C  0.05382996  0.61928010  0.54262394     0.85800
O175        O  0.99124086  0.53435630  0.53034560    -0.56200
O176        O  0.92276177  0.52202561  0.56876643    -0.59500
In177      In  0.32405683  0.23251217  0.56743760     1.36900
C178        C  0.27734856  0.18725122  0.60542241     0.78200
O179        O  0.27877180  0.24897747  0.55704914    -0.60200
O180        O  0.28903574  0.21224623  0.53270436    -0.51200
C181        C  0.38268537  0.30758455  0.56096174     0.70900
O182        O  0.38702165  0.28289470  0.57378952    -0.46000
C183        C  0.36502797  0.20167269  0.54807358     0.75600
O184        O  0.30216457  0.22382729  0.60800429    -0.57900
O185        O  0.34070026  0.20727446  0.53597395    -0.48000
O186        O  0.27825121  0.17472513  0.58412349    -0.54300
C187        C  0.27031154  0.23040401  0.53670260     0.85800
O188        O  0.34715974  0.29599478  0.55600483    -0.56200
O189        O  0.36722934  0.20998663  0.57081238    -0.59500
In190      In  0.32644391  0.92382991  0.44165792     1.36900
C191        C  0.27965544  0.92537998  0.40632109     0.78200
O192        O  0.29406757  0.85780670  0.43983298    -0.60200
O193        O  0.28066473  0.88708130  0.46867895    -0.51200
C194        C  0.38398565  0.91764111  0.46320739     0.70900
O195        O  0.38024776  0.91558535  0.43966258    -0.46000
C196        C  0.36121151  0.99930628  0.45153006     0.75600
O197        O  0.30891438  0.92046848  0.40105492    -0.57900
O198        O  0.33112089  0.97365701  0.46331611    -0.48000
O199        O  0.27551204  0.92901206  0.42913788    -0.54300
C200        C  0.27384236  0.85455314  0.45901985     0.85800
O201        O  0.35868853  0.92300385  0.47450779    -0.56200
O202        O  0.37313938  0.98639922  0.43388271    -0.59500
In203      In  0.98187223  0.21882599  0.42522620     1.36900
C204        C  0.97544579  0.17352376  0.38629593     0.78200
O205        O  0.04614071  0.23798177  0.42335620    -0.60200
O206        O  0.01045509  0.19851236  0.45189412    -0.51200
C207        C  0.99972163  0.29006606  0.44261346     0.70900
O208        O  0.98915939  0.28063537  0.42020100    -0.46000
C209        C  0.91083533  0.18528936  0.44451032     0.75600
O210        O  0.98977014  0.21076042  0.38395223    -0.57900
O211        O  0.93724795  0.17789220  0.45167933    -0.48000
O212        O  0.96119093  0.16069817  0.40745462    -0.54300
C213        C  0.04429953  0.21756484  0.44209722     0.85800
O214        O  0.00292497  0.26413650  0.45461183    -0.56200
O215        O  0.91982495  0.20831416  0.42609543    -0.59500
In216      In  0.68462878  0.93853112  0.56827737     1.36900
C217        C  0.72818726  0.93290815  0.60478162     0.78200
O218        O  0.65785430  0.87349299  0.56231264    -0.60200
O219        O  0.70295770  0.91321583  0.53770944    -0.51200
C220        C  0.61382760  0.92661059  0.55499795     0.70900
O221        O  0.62305096  0.92869573  0.57772818    -0.46000
C222        C  0.72168337  0.01440180  0.55732882     0.75600
O223        O  0.69327392  0.92648567  0.60865136    -0.57900
O224        O  0.72233355  0.98843486  0.54370100    -0.48000
O225        O  0.74019066  0.94319835  0.58290295    -0.54300
C226        C  0.67896518  0.87761629  0.54343501     0.85800
O227        O  0.64017999  0.93003549  0.54012264    -0.56200
O228        O  0.70331618  0.00203291  0.57758828    -0.59500
C229        C  0.83361615  0.17424877  0.49061713    -0.11300
C230        C  0.81419898  0.13309610  0.49406907     0.11300
C231        C  0.82112838  0.10889110  0.47751481    -0.03100
C232        C  0.85098350  0.12736466  0.45967318    -0.05800
C233        C  0.87308960  0.16865597  0.45777498    -0.16600
C234        C  0.86338539  0.19267980  0.47254299     0.02300
C235        C  0.78988094  0.11572095  0.51647341     0.12300
C236        C  0.79837861  0.06384462  0.47937825     0.62900
H237        H  0.85899970  0.10979729  0.44800039     0.12300
C238        C  0.88635395  0.23754076  0.47041413     0.55000
H239        H  0.82709138  0.19189307  0.50322373     0.08100
C240        C  0.80670582  0.10944989  0.53796694    -0.05700
C241        C  0.78182294  0.07879619  0.55413653    -0.06400
C242        C  0.74135026  0.05578246  0.54930388    -0.16000
C243        C  0.72385673  0.06776741  0.53089031    -0.01600
C244        C  0.74873586  0.09796077  0.51443994    -0.09100
C245        C  0.85097651  0.13245700  0.54248051     0.65100
H246        H  0.79439605  0.06965196  0.56882822     0.10600
C247        C  0.67938191  0.04646675  0.52755037     0.63500
H248        H  0.73644663  0.10454839  0.49838533     0.07900
F249        F  0.87136217  0.25519577  0.48595706    -0.19500
F250        F  0.88438838  0.24868414  0.44640534    -0.15800
F251        F  0.92546108  0.25152056  0.47663167    -0.19200
F252        F  0.75828098  0.05001474  0.47715100    -0.22600
F253        F  0.80557063  0.05184844  0.50188619    -0.24100
F254        F  0.80914379  0.04640089  0.46088104    -0.18100
F255        F  0.66816948  0.06640178  0.51117638    -0.20600
F256        F  0.66137497  0.04400655  0.55008634    -0.21700
F257        F  0.66619385  0.00865741  0.51857768    -0.18900
F258        F  0.86042062  0.12441670  0.56562811    -0.19000
F259        F  0.86437657  0.17269878  0.54120125    -0.22800
F260        F  0.87044196  0.12267839  0.52485995    -0.24400
C261        C  0.44404338  0.90589942  0.51507606    -0.11300
C262        C  0.48087838  0.92003967  0.50363844     0.11300
C263        C  0.48503722  0.92990561  0.47812159    -0.03100
C264        C  0.45247330  0.92777609  0.46530664    -0.05800
C265        C  0.41591630  0.91535225  0.47707184    -0.16600
C266        C  0.41124898  0.90288589  0.50230196     0.02300
C267        C  0.51365693  0.92157669  0.51868975     0.12300
C268        C  0.52364377  0.94238838  0.46451248     0.62900
H269        H  0.45558475  0.93652103  0.44605131     0.12300
C270        C  0.37194978  0.88598427  0.51600762     0.55000
H271        H  0.44131093  0.89740886  0.53437899     0.08100
C272        C  0.53775208  0.95390639  0.53445044    -0.05700
C273        C  0.56847205  0.95311801  0.54780672    -0.06400
C274        C  0.57596186  0.92151229  0.54546826    -0.16000
C275        C  0.55099195  0.88872563  0.53033729    -0.01600
C276        C  0.51967599  0.88897840  0.51762406    -0.09100
C277        C  0.53144188  0.98928703  0.53677540     0.65100
H278        H  0.58809884  0.97806001  0.55925845     0.10600
C279        C  0.55812689  0.85403487  0.52705500     0.63500
H280        H  0.50041071  0.86423642  0.50590678     0.07900
F281        F  0.36415738  0.91610316  0.52163712    -0.19500
F282        F  0.37227226  0.86783838  0.53797486    -0.15800
F283        F  0.34172845  0.85768695  0.50165655    -0.19200
F284        F  0.53196406  0.91176844  0.46494454    -0.22600
F285        F  0.55425010  0.97532554  0.47568471    -0.24100
F286        F  0.52185973  0.95176967  0.44002503    -0.18100
F287        F  0.52693451  0.82257179  0.51506403    -0.20600
F288        F  0.56257322  0.84074769  0.54989891    -0.21700
F289        F  0.59200751  0.86581492  0.51312792    -0.18900
F290        F  0.55945740  0.01842603  0.55191090    -0.19000
F291        F  0.49446345  0.97725842  0.54674917    -0.22800
F292        F  0.53397923  0.00592410  0.51377678    -0.24400
C293        C  0.41899945  0.17808669  0.49940627    -0.11300
C294        C  0.40450930  0.13801738  0.50498383     0.11300
C295        C  0.38664928  0.12274470  0.52833645    -0.03100
C296        C  0.37811359  0.14659601  0.54373144    -0.05800
C297        C  0.38708799  0.18459116  0.53627618    -0.16600
C298        C  0.41071330  0.20200839  0.51496160     0.02300
C299        C  0.40100686  0.11074091  0.48483716     0.12300
C300        C  0.37424268  0.08059010  0.53616089     0.62900
H301        H  0.36114042  0.13445372  0.56057045     0.12300
C302        C  0.42736410  0.24563479  0.50900220     0.55000
H303        H  0.43422800  0.18958538  0.48196160     0.08100
C304        C  0.36767283  0.09475631  0.46900519    -0.05700
C305        C  0.35772663  0.05976421  0.45616412    -0.06400
C306        C  0.38032347  0.04119414  0.45849477    -0.16000
C307        C  0.41647636  0.05995992  0.47158030    -0.01600
C308        C  0.42657179  0.09513356  0.48452312    -0.09100
C309        C  0.34143427  0.11322335  0.46680546     0.65100
H310        H  0.33064070  0.04506061  0.44557017     0.10600
C311        C  0.44227041  0.04108437  0.47355631     0.63500
H312        H  0.45242995  0.10855037  0.49629263     0.07900
F313        F  0.39724142  0.25371597  0.50448218    -0.19500
F314        F  0.45179776  0.25708982  0.48838894    -0.15800
F315        F  0.44943954  0.26808086  0.52885340    -0.19200
F316        F  0.40687123  0.07547091  0.53622847    -0.22600
F317        F  0.34631983  0.05379430  0.51996521    -0.24100
F318        F  0.35802876  0.07216119  0.55971625    -0.18100
F319        F  0.47730030  0.06538575  0.48582918    -0.20600
F320        F  0.45162091  0.03383523  0.45015051    -0.21700
F321        F  0.42222514  0.00568594  0.48639048    -0.18900
F322        F  0.31074394  0.09276875  0.45030500    -0.19000
F323        F  0.36363296  0.15180544  0.45837069    -0.22800
F324        F  0.32512067  0.11319534  0.48955993    -0.24400
C325        C  0.20350011  0.21365457  0.48084859    -0.11300
C326        C  0.18300107  0.23247678  0.48904960     0.11300
C327        C  0.19129047  0.25088476  0.51249994    -0.03100
C328        C  0.22080235  0.25032451  0.52696649    -0.05800
C329        C  0.24101443  0.23064580  0.51921581    -0.16600
C330        C  0.23234553  0.21201131  0.49554425     0.02300
C331        C  0.14875077  0.22701229  0.47446645     0.12300
C332        C  0.16800523  0.26972314  0.52257983     0.62900
H333        H  0.22738208  0.26438094  0.54494766     0.12300
C334        C  0.25240819  0.18980457  0.48569912     0.55000
H335        H  0.19551178  0.19896319  0.46305262     0.08100
C336        C  0.15193842  0.25271743  0.45505336    -0.05700
C337        C  0.11694895  0.24759229  0.44431024    -0.06400
C338        C  0.07945595  0.21754447  0.45232052    -0.16000
C339        C  0.07682544  0.18956774  0.47028120    -0.01600
C340        C  0.11187451  0.19493105  0.48090688    -0.09100
C341        C  0.19190867  0.28535770  0.44589715     0.65100
H342        H  0.11870919  0.26799476  0.43008291     0.10600
C343        C  0.03772222  0.15447402  0.47871853     0.63500
H344        H  0.11079758  0.17500505  0.49528197     0.07900
F345        F  0.29280694  0.21529145  0.48399313    -0.19500
F346        F  0.23898403  0.17423438  0.46237512    -0.15800
F347        F  0.24460696  0.15847892  0.50125455    -0.19200
F348        F  0.12859316  0.24121861  0.52527533    -0.22600
F349        F  0.17093017  0.29875132  0.50657229    -0.24100
F350        F  0.18176934  0.28708752  0.54545784    -0.18100
F351        F  0.01593545  0.13322642  0.45841470    -0.20600
F352        F  0.01651607  0.16776941  0.49230392    -0.21700
F353        F  0.04325400  0.12867830  0.49359820    -0.18900
F354        F  0.18816906  0.30616267  0.42629524    -0.19000
F355        F  0.21439893  0.26902452  0.43795105    -0.22800
F356        F  0.21170188  0.31191902  0.46472062    -0.24400
C357        C  0.02621309  0.45638461  0.49530252    -0.11300
C358        C  0.99988849  0.41634040  0.50042835     0.11300
C359        C  0.97440006  0.40630832  0.52129734    -0.03100
C360        C  0.97421519  0.43707724  0.53528230    -0.05800
C361        C  0.99933093  0.47728383  0.52936150    -0.16600
C362        C  0.02667429  0.48706919  0.50945626     0.02300
C363        C  0.00118954  0.38583729  0.48408962     0.12300
C364        C  0.94835761  0.36334952  0.52909268     0.62900
H365        H  0.95398138  0.42993720  0.55071380     0.12300
C366        C  0.05686617  0.52982103  0.50324419     0.55000
H367        H  0.04624867  0.46345908  0.47975481     0.08100
C368        C  0.97931864  0.37240862  0.46177713    -0.05700
C369        C  0.98118095  0.34256895  0.44783694    -0.06400
C370        C  0.00501106  0.32669428  0.45513024    -0.16000
C371        C  0.02970218  0.34300931  0.47624550    -0.01600
C372        C  0.02677436  0.37179224  0.49052627    -0.09100
C373        C  0.95426528  0.38967770  0.45272971     0.65100
H374        H  0.96293581  0.33044873  0.43155813     0.10600
C375        C  0.05907592  0.33022876  0.48408897     0.63500
H376        H  0.04428848  0.38332518  0.50715301     0.07900
F377        F  0.03835497  0.54798765  0.49188406    -0.19500
F378        F  0.08595135  0.53220419  0.48738415    -0.15800
F379        F  0.07528555  0.55021745  0.52459193    -0.19200
F380        F  0.97196753  0.34818970  0.53675334    -0.22600
F381        F  0.92527882  0.34091458  0.50954821    -0.24100
F382        F  0.92333972  0.35965485  0.54841812    -0.18100
F383        F  0.07794918  0.32581232  0.46361530    -0.20600
F384        F  0.03954508  0.29471617  0.49686258    -0.21700
F385        F  0.08801329  0.35815176  0.49936054    -0.18900
F386        F  0.93474449  0.37201819  0.43098117    -0.19000
F387        F  0.97820849  0.42982306  0.44832358    -0.22800
F388        F  0.92619953  0.38424560  0.47032382    -0.24400
C389        C  0.15842709  0.70301095  0.52986730    -0.11300
C390        C  0.15482329  0.70990965  0.50484790     0.11300
C391        C  0.12036830  0.68371118  0.49163039    -0.03100
C392        C  0.08883507  0.65316059  0.50467935    -0.05800
C393        C  0.09090626  0.64818374  0.53025102    -0.16600
C394        C  0.12676404  0.67245925  0.54304267     0.02300
C395        C  0.18588554  0.74702389  0.49360053     0.12300
C396        C  0.11649052  0.68878444  0.46409273     0.62900
H397        H  0.06166274  0.63349881  0.49505571     0.12300
C398        C  0.13129481  0.66755040  0.57049426     0.55000
H399        H  0.18572828  0.72310636  0.53922442     0.08100
C400        C  0.18617530  0.78313162  0.49721530    -0.05700
C401        C  0.21486454  0.81696569  0.48488081    -0.06400
C402        C  0.24385215  0.81616545  0.46978630    -0.16000
C403        C  0.24427795  0.78004510  0.46682443    -0.01600
C404        C  0.21487460  0.74587114  0.47886774    -0.09100
C405        C  0.15695680  0.78620504  0.51451426     0.65100
H406        H  0.21508736  0.84470949  0.48726121     0.10600
C407        C  0.27566387  0.77730036  0.45162734     0.63500
H408        H  0.21405942  0.71777131  0.47685589     0.07900
F409        F  0.10268254  0.67090834  0.58374075    -0.19500
F410        F  0.16795616  0.69605748  0.57921412    -0.15800
F411        F  0.12750246  0.63076694  0.57479849    -0.19200
F412        F  0.14578464  0.68602793  0.45131238    -0.22600
F413        F  0.12009138  0.72542285  0.45955875    -0.24100
F414        F  0.08029147  0.65993278  0.45498216    -0.18100
F415        F  0.31294113  0.80487090  0.45991899    -0.20600
F416        F  0.27195922  0.78426244  0.42697117    -0.21700
F417        F  0.27221063  0.74017709  0.45340831    -0.18900
F418        F  0.16056229  0.82344996  0.51372106    -0.19000
F419        F  0.16384341  0.77922262  0.53855969    -0.22800
F420        F  0.11855878  0.75872893  0.50809451    -0.24400
C421        C  0.53858499  0.46927328  0.51736214    -0.11300
C422        C  0.51335125  0.43356695  0.50541402     0.11300
C423        C  0.51878019  0.42994313  0.47977263    -0.03100
C424        C  0.55172007  0.46130578  0.46747594    -0.05800
C425        C  0.57839366  0.49649499  0.47981616    -0.16600
C426        C  0.57060866  0.50108508  0.50507378     0.02300
C427        C  0.48048423  0.40164046  0.52036671     0.12300
C428        C  0.48940021  0.39353130  0.46542614     0.62900
H429        H  0.55709854  0.45835397  0.44814208     0.12300
C430        C  0.59509167  0.53958445  0.51920332     0.55000
H431        H  0.53300160  0.47186789  0.53672606     0.08100
C432        C  0.48597627  0.37480200  0.53526340    -0.05700
C433        C  0.45401175  0.34661455  0.54968342    -0.06400
C434        C  0.41662145  0.34390208  0.54956701    -0.16000
C435        C  0.41194761  0.37241303  0.53560417    -0.01600
C436        C  0.44415224  0.40082118  0.52138680    -0.09100
C437        C  0.52533252  0.37558831  0.53573465     0.65100
H438        H  0.45770056  0.32528971  0.56049868     0.10600
C439        C  0.37339420  0.37324760  0.53537941     0.63500
H440        H  0.44108826  0.42250673  0.51051277     0.07900
F441        F  0.63193403  0.54453817  0.52456565    -0.19500
F442        F  0.57734135  0.53985832  0.54138079    -0.15800
F443        F  0.59931112  0.57132495  0.50527491    -0.19200
F444        F  0.45251319  0.39041584  0.46628125    -0.22600
F445        F  0.48671138  0.35967591  0.47556873    -0.24100
F446        F  0.50030167  0.39555395  0.44083453    -0.18100
F447        F  0.36029563  0.37199605  0.55935935    -0.20600
F448        F  0.34504320  0.34124216  0.52218044    -0.21700
F449        F  0.37791958  0.40743519  0.52439560    -0.18900
F450        F  0.52430193  0.34686829  0.55134942    -0.19000
F451        F  0.55481613  0.41213332  0.54388935    -0.22800
F452        F  0.53486496  0.36882082  0.51229067    -0.24400
C453        C  0.69516441  0.72777670  0.50932104    -0.11300
C454        C  0.67218604  0.74076909  0.49697141     0.11300
C455        C  0.65205316  0.72177384  0.47508252    -0.03100
C456        C  0.65592463  0.69009734  0.46605266    -0.05800
C457        C  0.67867560  0.67652956  0.47837626    -0.16600
C458        C  0.69855491  0.69553200  0.50062244     0.02300
C459        C  0.66997236  0.77452660  0.50765753     0.12300
C460        C  0.62587693  0.73432759  0.46170347     0.62900
H461        H  0.64097238  0.67563047  0.44911357     0.12300
C462        C  0.72269028  0.68197509  0.51550287     0.55000
H463        H  0.71018634  0.74312729  0.52606563     0.08100
C464        C  0.64720743  0.77076578  0.52897598    -0.05700
C465        C  0.65089746  0.80523973  0.53968005    -0.06400
C466        C  0.67585890  0.84311391  0.52966028    -0.16000
C467        C  0.69699114  0.84651586  0.50739153    -0.01600
C468        C  0.69418319  0.81197639  0.49717354    -0.09100
C469        C  0.61887749  0.73162451  0.54144377     0.65100
H470        H  0.63411180  0.80229611  0.55635865     0.10600
C471        C  0.72249716  0.88586497  0.49424653     0.63500
H472        H  0.71156294  0.81390478  0.48100996     0.07900
F473        F  0.73633714  0.70284133  0.53741913    -0.19500
F474        F  0.75528376  0.68781433  0.50190253    -0.15800
F475        F  0.69957513  0.64224224  0.52149617    -0.19200
F476        F  0.64835494  0.77281099  0.45318607    -0.22600
F477        F  0.59714430  0.73215565  0.47773729    -0.24100
F478        F  0.60704608  0.71024394  0.44159111    -0.18100
F479        F  0.73693412  0.88102131  0.47185614    -0.20600
F480        F  0.75461144  0.91039912  0.50881151    -0.21700
F481        F  0.70033510  0.90389291  0.48935729    -0.18900
F482        F  0.58171409  0.72785671  0.54280811    -0.19000
F483        F  0.63196023  0.73156901  0.56518640    -0.22800
F484        F  0.61512986  0.69880015  0.52914311    -0.24400
C485        C  0.79555211  0.51761804  0.47430391    -0.11300
C486        C  0.77623694  0.49337181  0.49480425     0.11300
C487        C  0.73534443  0.47857328  0.49851982    -0.03100
C488        C  0.71591680  0.49223658  0.48292598    -0.05800
C489        C  0.73660616  0.52031537  0.46436630    -0.16600
C490        C  0.77631946  0.53182807  0.45904553     0.02300
C491        C  0.80192891  0.49254012  0.51449389     0.12300
C492        C  0.71300178  0.44980014  0.51935744     0.62900
H493        H  0.68533361  0.48379706  0.48648728     0.12300
C494        C  0.79842358  0.56025072  0.43801211     0.55000
H495        H  0.82683022  0.52820194  0.47172381     0.08100
C496        C  0.82295972  0.47178261  0.51198375    -0.05700
C497        C  0.85722435  0.48412068  0.52621555    -0.06400
C498        C  0.87079203  0.51656141  0.54232101    -0.16000
C499        C  0.84803744  0.53503349  0.54634567    -0.01600
C500        C  0.81337720  0.52217813  0.53257292    -0.09100
C501        C  0.81176887  0.43816103  0.49379914     0.65100
H502        H  0.87505546  0.47017097  0.52339307     0.10600
C503        C  0.86182936  0.56979559  0.56396770     0.63500
H504        H  0.79713481  0.53800218  0.53399336     0.07900
F505        F  0.83680570  0.56734396  0.43578753    -0.19500
F506        F  0.80007289  0.59617865  0.44193455    -0.15800
F507        F  0.77894145  0.54415851  0.41602944    -0.19200
F508        F  0.72780574  0.46749143  0.54197659    -0.22600
F509        F  0.71711187  0.41662518  0.51714250    -0.24100
F510        F  0.67300520  0.43751521  0.51885737    -0.18100
F511        F  0.89646480  0.60169639  0.55518910    -0.20600
F512        F  0.86867246  0.55911185  0.58704122    -0.21700
F513        F  0.83395914  0.58170181  0.56657752    -0.18900
F514        F  0.80775034  0.40534230  0.50633814    -0.19000
F515        F  0.84140557  0.44959103  0.47625633    -0.22800
F516        F  0.77653113  0.42707748  0.48177332    -0.24400
C517        C  0.17520263  0.94733275  0.31688465    -0.11300
C518        C  0.16407435  0.91732095  0.33445378     0.11300
C519        C  0.12435744  0.88610922  0.33515125    -0.03100
C520        C  0.09803810  0.88406403  0.31657172    -0.05800
C521        C  0.10940171  0.91270223  0.29750917    -0.16600
C522        C  0.14908170  0.94632856  0.29847322     0.02300
C523        C  0.19479521  0.92015303  0.35221816     0.12300
C524        C  0.11007401  0.85473902  0.35534266     0.62900
H525        H  0.06859795  0.85859161  0.31672775     0.12300
C526        C  0.16507756  0.98218424  0.28101038     0.55000
H527        H  0.20530016  0.97189056  0.31781668     0.08100
C528        C  0.22254879  0.90812045  0.34588974    -0.05700
C529        C  0.24972041  0.91025620  0.36394842    -0.06400
C530        C  0.25143716  0.92597830  0.38765441    -0.16000
C531        C  0.22583722  0.94153849  0.39302483    -0.01600
C532        C  0.19755474  0.93750966  0.37532205    -0.09100
C533        C  0.22402815  0.89409256  0.31991633     0.65100
H534        H  0.27000295  0.89971446  0.35958517     0.10600
C535        C  0.22881711  0.96374680  0.41682746     0.63500
H536        H  0.17721710  0.94814984  0.37931456     0.07900
F537        F  0.20492614  0.00842697  0.28482642    -0.19500
F538        F  0.14565089  0.00312994  0.28514380    -0.15800
F539        F  0.16130392  0.97109201  0.25651093    -0.19200
F540        F  0.11487522  0.87243574  0.37822191    -0.22600
F541        F  0.13163353  0.83534182  0.35459084    -0.24100
F542        F  0.07041471  0.82670267  0.35279049    -0.18100
F543        F  0.20620642  0.98210723  0.41596946    -0.20600
F544        F  0.26766301  0.99300078  0.42062125    -0.21700
F545        F  0.21557517  0.93777433  0.43665110    -0.18900
F546        F  0.25201737  0.88227991  0.31774651    -0.19000
F547        F  0.23385463  0.92469934  0.30332082    -0.22800
F548        F  0.18757822  0.86235470  0.31365283    -0.24400
C549        C  0.01686862  0.05522188  0.31964617    -0.11300
C550        C  0.98386444  0.06068525  0.31867486     0.11300
C551        C  0.95349984  0.03878322  0.30138127    -0.03100
C552        C  0.95750681  0.01243837  0.28538473    -0.05800
C553        C  0.99129756  0.00817866  0.28550253    -0.16600
C554        C  0.02100707  0.02900806  0.30340280     0.02300
C555        C  0.98174058  0.08953038  0.33597116     0.12300
C556        C  0.91796186  0.04470965  0.29896716     0.62900
H557        H  0.93528354  0.99668488  0.27138298     0.12300
C558        C  0.05665372  0.02340685  0.30546553     0.55000
H559        H  0.03952838  0.07192711  0.33321918     0.08100
C560        C  0.96707067  0.07869527  0.36032496    -0.05700
C561        C  0.96415297  0.10671754  0.37529932    -0.06400
C562        C  0.97687680  0.14589846  0.36733059    -0.16000
C563        C  0.99289454  0.15705486  0.34303752    -0.01600
C564        C  0.99459948  0.12836781  0.32773342    -0.09100
C565        C  0.95523954  0.03785054  0.37064541     0.65100
H566        H  0.95264205  0.09812703  0.39388543     0.10600
C567        C  0.00839530  0.19875533  0.33317318     0.63500
H568        H  0.00629386  0.13604023  0.30910133     0.07900
F569        F  0.04427354  0.98521640  0.31346968    -0.19500
F570        F  0.08403231  0.04953449  0.32222994    -0.15800
F571        F  0.07535729  0.02955464  0.28278890    -0.19200
F572        F  0.93041662  0.08315277  0.29147172    -0.22600
F573        F  0.89853360  0.03792155  0.32140488    -0.24100
F574        F  0.89108309  0.01920957  0.28175322    -0.18100
F575        F  0.02197615  0.20269256  0.30905450    -0.20600
F576        F  0.03963375  0.22554878  0.34753935    -0.21700
F577        F  0.97846059  0.20802039  0.33355352    -0.18900
F578        F  0.94179665  0.03336409  0.39481847    -0.19000
F579        F  0.98751392  0.03216621  0.37034536    -0.22800
F580        F  0.92540055  0.00873114  0.35653631    -0.24400
C581        C  0.86703108  0.76318815  0.33926586    -0.11300
C582        C  0.82618182  0.74444850  0.33459375     0.11300
C583        C  0.81311213  0.75751171  0.31411797    -0.03100
C584        C  0.84146647  0.78524403  0.29753260    -0.05800
C585        C  0.88260881  0.80011826  0.30021500    -0.16600
C586        C  0.89532252  0.79271767  0.32332570     0.02300
C587        C  0.79776214  0.71267929  0.35199617     0.12300
C588        C  0.76936806  0.74201641  0.30959573     0.62900
H589        H  0.83143260  0.79437147  0.28149371     0.12300
C590        C  0.93639971  0.81874162  0.33382351     0.55000
H591        H  0.87683764  0.75585081  0.35618536     0.08100
C592        C  0.79039760  0.67304230  0.35102911    -0.05700
C593        C  0.76326114  0.64461360  0.36797262    -0.06400
C594        C  0.74350077  0.65462151  0.38580825    -0.16000
C595        C  0.75045355  0.69405476  0.38655965    -0.01600
C596        C  0.77758312  0.72243633  0.36970259    -0.09100
C597        C  0.81193224  0.66113450  0.33254033     0.65100
H598        H  0.75841417  0.61467019  0.36805097     0.10600
C599        C  0.72924309  0.70600489  0.40530863     0.63500
H600        H  0.78373487  0.75280456  0.37044272     0.07900
F601        F  0.95757518  0.79893878  0.33294032    -0.19500
F602        F  0.93344683  0.82750313  0.35829916    -0.15800
F603        F  0.95677808  0.85457631  0.32146412    -0.19200
F604        F  0.75437901  0.75547799  0.32803223    -0.22600
F605        F  0.74886584  0.70099982  0.30955134    -0.24100
F606        F  0.76282940  0.75478186  0.28711244    -0.18100
F607        F  0.73989149  0.70183691  0.42899877    -0.20600
F608        F  0.68876868  0.68204405  0.40264465    -0.21700
F609        F  0.73847470  0.74504020  0.40227936    -0.18900
F610        F  0.79816876  0.62073588  0.33313670    -0.19000
F611        F  0.85188476  0.68066123  0.33793012    -0.22800
F612        F  0.80666779  0.67103706  0.30884458    -0.24400
C613        C  0.12530367  0.85534509  0.18246012    -0.11300
C614        C  0.15619307  0.89107419  0.17299325     0.11300
C615        C  0.15742782  0.92707472  0.17947508    -0.03100
C616        C  0.12902843  0.92602187  0.19638463    -0.05800
C617        C  0.09949041  0.89037241  0.20703328    -0.16600
C618        C  0.09728392  0.85428559  0.19952315     0.02300
C619        C  0.18541300  0.88941926  0.15540388     0.12300
C620        C  0.18956477  0.96661087  0.16933917     0.62900
H621        H  0.13116128  0.95347139  0.20265663     0.12300
C622        C  0.06712919  0.81387442  0.20952711     0.55000
H623        H  0.12358033  0.82775289  0.17686474     0.08100
C624        C  0.21680295  0.88337062  0.16324948    -0.05700
C625        C  0.24237363  0.88136517  0.14530773    -0.06400
C626        C  0.23722866  0.88440351  0.11984578    -0.16000
C627        C  0.20571397  0.89056778  0.11207535    -0.01600
C628        C  0.18024397  0.89235194  0.13001923    -0.09100
C629        C  0.22349351  0.87927538  0.19047046     0.65100
H630        H  0.26645154  0.87691436  0.15104866     0.10600
C631        C  0.19916186  0.89639413  0.08500583     0.63500
H632        H  0.15562381  0.89596926  0.12433506     0.07900
F633        F  0.08647403  0.79850953  0.22303367    -0.19500
F634        F  0.04773746  0.78869294  0.18997875    -0.15800
F635        F  0.03889168  0.81487654  0.22446247    -0.19200
F636        F  0.18702975  0.96715211  0.14386757    -0.22600
F637        F  0.22637912  0.97242048  0.17574195    -0.24100
F638        F  0.18628239  0.99806449  0.17854922    -0.18100
F639        F  0.17092271  0.90775408  0.08219636    -0.20600
F640        F  0.18624533  0.86130139  0.07219882    -0.21700
F641        F  0.23401951  0.92579594  0.07461404    -0.18900
F642        F  0.25523368  0.87321570  0.19406975    -0.19000
F643        F  0.19034282  0.84731270  0.20060476    -0.22800
F644        F  0.23109613  0.91339261  0.20290446    -0.24400
C645        C  0.28596279  0.08756864  0.00668872    -0.11300
C646        C  0.32139031  0.08687514  0.00504394     0.11300
C647        C  0.35408283  0.11680250  0.99199334    -0.03100
C648        C  0.35021999  0.14738474  0.98122582    -0.05800
C649        C  0.31471148  0.14833438  0.98279675    -0.16600
C650        C  0.28193647  0.11812562  0.99595957     0.02300
C651        C  0.32223285  0.05280963  0.01601934     0.12300
C652        C  0.39218532  0.11559897  0.98858008     0.62900
H653        H  0.37484193  0.17042080  0.97093042     0.12300
C654        C  0.24261672  0.11715842  0.99829899     0.55000
H655        H  0.26127304  0.06350290  0.01635121     0.08100
C656        C  0.32620693  0.04967636  0.04175602    -0.05700
C657        C  0.32543486  0.01552508  0.05078651    -0.06400
C658        C  0.31916512  0.98431258  0.03495648    -0.16000
C659        C  0.31468207  0.98746699  0.00912880    -0.01600
C660        C  0.31647492  0.02205550  0.00015559    -0.09100
C661        C  0.33019803  0.08174236  0.05953139     0.65100
H662        H  0.32830310  0.01232120  0.07045431     0.10600
C663        C  0.30788572  0.95482469  0.99095485     0.63500
H664        H  0.31239323  0.02511031  0.98062856     0.07900
F665        F  0.24757876  0.14930543  0.01204818    -0.19500
F666        F  0.21423658  0.08309648  0.01007791    -0.15800
F667        F  0.22838721  0.11823182  0.97507450    -0.19200
F668        F  0.38539882  0.08452584  0.97312355    -0.22600
F669        F  0.40560608  0.11042459  0.01114076    -0.24100
F670        F  0.42186464  0.15030133  0.97812367    -0.18100
F671        F  0.27055311  0.92244837  0.99461445    -0.20600
F672        F  0.33616691  0.94366096  0.99418107    -0.21700
F673        F  0.31025562  0.96701519  0.96663460    -0.18900
F674        F  0.33685848  0.07420408  0.08353859    -0.19000
F675        F  0.29577905  0.08373353  0.05948476    -0.22800
F676        F  0.36150832  0.11811273  0.05245523    -0.24400
C677        C  0.21451456  0.32273770  0.96033251    -0.11300
C678        C  0.23080457  0.34336675  0.98248588     0.11300
C679        C  0.27069611  0.35591409  0.98815214    -0.03100
C680        C  0.28995788  0.33972356  0.97464570    -0.05800
C681        C  0.27064425  0.31308267  0.95528406    -0.16600
C682        C  0.23410983  0.30706961  0.94655187     0.02300
C683        C  0.20218277  0.33740317  0.00237571     0.12300
C684        C  0.29238702  0.38347515  0.00945714     0.62900
H685        H  0.31875729  0.34513827  0.98064942     0.12300
C686        C  0.21454744  0.28085377  0.92432429     0.55000
H687        H  0.18420647  0.31411026  0.95585762     0.08100
C688        C  0.17444067  0.35060351  0.00046482    -0.05700
C689        C  0.13977031  0.33155947  0.01483345    -0.06400
C690        C  0.13322476  0.30109960  0.03139487    -0.16000
C691        C  0.16301075  0.29138083  0.03550485    -0.01600
C692        C  0.19722748  0.30972593  0.02079840    -0.09100
C693        C  0.17986464  0.38393202  0.98345618     0.65100
H694        H  0.11684473  0.33927647  0.01227409     0.10600
C695        C  0.15774010  0.26075971  0.05476922     0.63500
H696        H  0.21887419  0.30010908  0.02219575     0.07900
F697        F  0.18110110  0.28201018  0.91716039    -0.19500
F698        F  0.20372592  0.24203546  0.92992518    -0.15800
F699        F  0.24082945  0.29360598  0.90463233    -0.19200
F700        F  0.29998455  0.36302551  0.02752416    -0.22600
F701        F  0.27096440  0.39947135  0.01983820    -0.24100
F702        F  0.32794414  0.41447946  0.00098011    -0.18100
F703        F  0.12574488  0.22423682  0.04879293    -0.20600
F704        F  0.15112008  0.27242325  0.07762205    -0.21700
F705        F  0.19089484  0.25659072  0.05652167    -0.18900
F706        F  0.17730673  0.41253135  0.99725778    -0.19000
F707        F  0.15028516  0.36928632  0.96585554    -0.22800
F708        F  0.21614886  0.40205351  0.97152938    -0.24400
C709        C  0.99767523  0.08370648  0.11637205    -0.11300
C710        C  0.99615561  0.08929285  0.14186246     0.11300
C711        C  0.99880455  0.12515543  0.15029818    -0.03100
C712        C  0.00336668  0.15439401  0.13282550    -0.05800
C713        C  0.00604015  0.14929367  0.10726242    -0.16600
C714        C  0.00180291  0.11253353  0.09886755     0.02300
C715        C  0.99566976  0.05880580  0.15927479     0.12300
C716        C  0.99733539  0.13265746  0.17774724     0.62900
H717        H  0.00603447  0.18205609  0.13909679     0.12300
C718        C  0.00023177  0.10273581  0.07149239     0.55000
H719        H  0.99624812  0.05650822  0.11026642     0.08100
C720        C  0.96129386  0.02224981  0.16486981    -0.05700
C721        C  0.96374482  0.99626781  0.18226061    -0.06400
C722        C  0.99932433  0.00533066  0.19454682    -0.16000
C723        C  0.03426890  0.04212994  0.18798689    -0.01600
C724        C  0.03144836  0.06708937  0.17009278    -0.09100
C725        C  0.92180435  0.01133003  0.15313122     0.65100
H726        H  0.93682052  0.96973436  0.18736046     0.10600
C727        C  0.07520459  0.05647360  0.19919521     0.63500
H728        H  0.05752090  0.09440348  0.16455373     0.07900
F729        F  0.97219033  0.10889603  0.05986192    -0.19500
F730        F  0.98992355  0.06353629  0.06769493    -0.15800
F731        F  0.03684057  0.12623491  0.06062208    -0.19200
F732        F  0.02998128  0.13518054  0.18943061    -0.22600
F733        F  0.96340145  0.10199030  0.18816388    -0.24100
F734        F  0.99720239  0.16766434  0.18204593    -0.18100
F735        F  0.09058619  0.03355410  0.19054537    -0.20600
F736        F  0.07382326  0.05537729  0.22470703    -0.21700
F737        F  0.10179598  0.09534278  0.19269151    -0.18900
F738        F  0.89173112  0.97492296  0.16134844    -0.19000
F739        F  0.92441656  0.00929141  0.12773057    -0.22800
F740        F  0.91153597  0.03965654  0.15887687    -0.24400
C741        C  0.50883233  0.89324938  0.97129513    -0.11300
C742        C  0.51937664  0.91456035  0.99362664     0.11300
C743        C  0.55987566  0.93636364  0.00018311    -0.03100
C744        C  0.58808430  0.93398400  0.98489744    -0.05800
C745        C  0.57753935  0.91161589  0.96286579    -0.16600
C746        C  0.53729519  0.89235420  0.95538072     0.02300
C747        C  0.48732825  0.91369319  0.00959511     0.12300
C748        C  0.57320718  0.96170694  0.02339462     0.62900
H749        H  0.61885164  0.94908129  0.99042290     0.12300
C750        C  0.52415825  0.87052109  0.93095162     0.55000
H751        H  0.47777284  0.87698341  0.96648693     0.08100
C752        C  0.46878812  0.93595801  0.00362003    -0.05700
C753        C  0.43812221  0.93290796  0.01896575    -0.06400
C754        C  0.42396724  0.90729562  0.03958598    -0.16000
C755        C  0.44280608  0.88524119  0.04577130    -0.01600
C756        C  0.47440435  0.88909795  0.03068766    -0.09100
C757        C  0.48017178  0.96174675  0.98055147     0.65100
H758        H  0.42357305  0.94951434  0.01419992     0.10600
C759        C  0.42877151  0.85664447  0.06746165     0.63500
H760        H  0.48868303  0.87201228  0.03483747     0.07900
F761        F  0.54380167  0.89665353  0.91177087    -0.19500
F762        F  0.48392219  0.85450359  0.92719736    -0.15800
F763        F  0.53249974  0.83991813  0.93036763    -0.19200
F764        F  0.55886978  0.93777910  0.04410406    -0.22600
F765        F  0.55914098  0.98805317  0.02329673    -0.24100
F766        F  0.61405301  0.98353647  0.02509186    -0.18100
F767        F  0.45039807  0.83740236  0.06975758    -0.20600
F768        F  0.38947820  0.82812151  0.06430984    -0.21700
F769        F  0.43282574  0.87715726  0.08915395    -0.18900
F770        F  0.46122377  0.98379625  0.97950814    -0.19000
F771        F  0.46968415  0.93807395  0.95972724    -0.22800
F772        F  0.52049049  0.98784741  0.98011533    -0.24400
C773        C  0.90003911  0.10516685  0.97550954    -0.11300
C774        C  0.86531204  0.08014724  0.98853738     0.11300
C775        C  0.86324046  0.08432227  0.01436826    -0.03100
C776        C  0.89541786  0.11598025  0.02613522    -0.05800
C777        C  0.93017606  0.14169504  0.01316969    -0.16600
C778        C  0.93315990  0.13572874  0.98747737     0.02300
C779        C  0.83217208  0.04799662  0.97499273     0.12300
C780        C  0.82778111  0.05467154  0.02950690     0.62900
H781        H  0.89405078  0.12021952  0.04583927     0.12300
C782        C  0.97067329  0.16113427  0.97262696     0.55000
H783        H  0.90099799  0.10008005  0.95588284     0.08100
C784        C  0.80215718  0.05310549  0.96407413    -0.05700
C785        C  0.76845676  0.01948784  0.95498389    -0.06400
C786        C  0.76472170  0.98173046  0.95624028    -0.16000
C787        C  0.79701160  0.97767338  0.96456322    -0.01600
C788        C  0.83032307  0.01120539  0.97400856    -0.09100
C789        C  0.80564353  0.09369220  0.96231861     0.65100
H790        H  0.74415390  0.02225776  0.94761171     0.10600
C791        C  0.79689353  0.93860451  0.96325689     0.63500
H792        H  0.85464490  0.00871141  0.98165403     0.07900
F793        F  0.96578596  0.15127408  0.94777313    -0.19500
F794        F  0.00090271  0.15562944  0.98135479    -0.15800
F795        F  0.98142495  0.20071735  0.97457627    -0.19200
F796        F  0.82356770  0.01735357  0.02724618    -0.22600
F797        F  0.79369309  0.05344747  0.02125802    -0.24100
F798        F  0.83205945  0.06430611  0.05439134    -0.18100
F799        F  0.78510536  0.92210395  0.93999901    -0.20600
F800        F  0.77138741  0.91265505  0.98090331    -0.21700
F801        F  0.83416018  0.94369667  0.96751293    -0.18900
F802        F  0.77426187  0.09227567  0.94952271    -0.19000
F803        F  0.84014504  0.11959732  0.94997632    -0.22800
F804        F  0.80637156  0.10830600  0.98572848    -0.24400
C805        C  0.96171655  0.34162888  0.00027847    -0.11300
C806        C  0.99464561  0.38004553  0.99967136     0.11300
C807        C  0.02786795  0.38900547  0.01472883    -0.03100
C808        C  0.02758402  0.35850875  0.02909733    -0.05800
C809        C  0.99555162  0.31954441  0.02855037    -0.16600
C810        C  0.96182231  0.31100080  0.01419458     0.02300
C811        C  0.99252367  0.41121711  0.98462551     0.12300
C812        C  0.06394926  0.43039312  0.01500142     0.62900
H813        H  0.05330204  0.36439176  0.03988572     0.12300
C814        C  0.92633463  0.26938276  0.01314935     0.55000
H815        H  0.93617481  0.33555835  0.98924230     0.08100
C816        C  0.99973080  0.41593887  0.95874761    -0.05700
C817        C  0.00070537  0.44873218  0.94666192    -0.06400
C818        C  0.99505361  0.47683229  0.95969744    -0.16000
C819        C  0.98571065  0.47052472  0.98550055    -0.01600
C820        C  0.98396168  0.43740410  0.99718902    -0.09100
C821        C  0.00672085  0.38670810  0.94409121     0.65100
H822        H  0.00715213  0.45334067  0.92705441     0.10600
C823        C  0.97806513  0.49855420  0.00121524     0.63500
H824        H  0.97750686  0.43245691  0.01679244     0.07900
F825        F  0.89359865  0.26921999  0.00318152    -0.19500
F826        F  0.91637636  0.25343480  0.03671362    -0.15800
F827        F  0.93526551  0.24561982  0.99861985    -0.19200
F828        F  0.05388053  0.45727270  0.02433048    -0.22600
F829        F  0.07852783  0.44157765  0.99123185    -0.24100
F830        F  0.09394618  0.43219070  0.02954240    -0.18100
F831        F  0.96370734  0.48311061  0.02448985    -0.20600
F832        F  0.95024846  0.50543826  0.98995122    -0.21700
F833        F  0.01297072  0.53401522  0.00446497    -0.18900
F834        F  0.01412168  0.39715439  0.91935097    -0.19000
F835        F  0.97362459  0.34936150  0.94553438    -0.22800
F836        F  0.03887678  0.38527102  0.95354398    -0.24400
C837        C  0.17463925  0.65236379  0.97742649    -0.11300
C838        C  0.18743113  0.69272139  0.98046036     0.11300
C839        C  0.17070244  0.71115130  0.96612649    -0.03100
C840        C  0.13888960  0.68735753  0.95066772    -0.05800
C841        C  0.12345922  0.64634464  0.94950109    -0.16600
C842        C  0.14212747  0.62842199  0.96226772     0.02300
C843        C  0.21496757  0.71464514  0.00065307     0.12300
C844        C  0.18482186  0.75528849  0.96820229     0.62900
H845        H  0.12385323  0.70012381  0.94067997     0.12300
C846        C  0.12542088  0.58389213  0.96183715     0.55000
H847        H  0.18831269  0.63929895  0.98849395     0.08100
C848        C  0.20052810  0.71549668  0.02461282    -0.05700
C849        C  0.22463444  0.74710840  0.04033391    -0.06400
C850        C  0.26158441  0.77734758  0.03226999    -0.16000
C851        C  0.27763354  0.77390036  0.00951906    -0.01600
C852        C  0.25418676  0.74151166  0.99424836    -0.09100
C853        C  0.15907616  0.68460248  0.03280399     0.65100
H854        H  0.21342628  0.75036214  0.05802512     0.10600
C855        C  0.31792145  0.80601126  0.00049179     0.63500
H856        H  0.26453214  0.73967960  0.97593137     0.07900
F857        F  0.08876377  0.56526475  0.97326376    -0.19500
F858        F  0.14968505  0.57301688  0.97408739    -0.15800
F859        F  0.12152435  0.57082643  0.93767718    -0.19200
F860        F  0.22409813  0.77714372  0.96116485    -0.22600
F861        F  0.18081490  0.76478308  0.99228801    -0.24100
F862        F  0.16337098  0.76644201  0.95315461    -0.18100
F863        F  0.34568994  0.81540036  0.01891641    -0.20600
F864        F  0.31621024  0.83956795  0.99418098    -0.21700
F865        F  0.33033183  0.79390414  0.97991252    -0.18900
F866        F  0.15081751  0.69154189  0.05661654    -0.19000
F867        F  0.15558729  0.64745640  0.03232568    -0.22800
F868        F  0.13116363  0.68482612  0.01719084    -0.24400
C869        C  0.55339966  0.41958754  0.01293985    -0.11300
C870        C  0.51469654  0.41045867  0.01868391     0.11300
C871        C  0.50837247  0.43175090  0.03777153    -0.03100
C872        C  0.54143354  0.46313414  0.04955057    -0.05800
C873        C  0.58025850  0.47410835  0.04256710    -0.16600
C874        C  0.58648250  0.45149556  0.02423681     0.02300
C875        C  0.48154374  0.37909565  0.00388101     0.12300
C876        C  0.46691230  0.42166402  0.04547074     0.62900
H877        H  0.53720075  0.48054307  0.06359833     0.12300
C878        C  0.62774225  0.46114260  0.01617366     0.55000
H879        H  0.55750385  0.40240402  0.99866674     0.08100
C880        C  0.47208243  0.38659867  0.97988234    -0.05700
C881        C  0.43961724  0.35585385  0.96725060    -0.06400
C882        C  0.41653840  0.31817017  0.97784857    -0.16000
C883        C  0.42714805  0.31024699  0.00147065    -0.01600
C884        C  0.45962213  0.34099009  0.01401025    -0.09100
C885        C  0.49597649  0.42706471  0.96779471     0.65100
H886        H  0.43127338  0.36135801  0.94922939     0.10600
C887        C  0.40516861  0.26924643  0.01319781     0.63500
H888        H  0.46798483  0.33568643  0.03208294     0.07900
F889        F  0.64484344  0.49517962  0.00186996    -0.19500
F890        F  0.62684973  0.43084245  0.00221577    -0.15800
F891        F  0.65108984  0.46669672  0.03666950    -0.19200
F892        F  0.44782846  0.38453315  0.05634132    -0.22600
F893        F  0.44561623  0.42167527  0.02507753    -0.24100
F894        F  0.46744805  0.44872812  0.06233530    -0.18100
F895        F  0.40260126  0.24121334  0.99643110    -0.20600
F896        F  0.36755810  0.26043371  0.02030410    -0.21700
F897        F  0.42434810  0.26665422  0.03401877    -0.18900
F898        F  0.48018951  0.42889811  0.94526301    -0.19000
F899        F  0.53429639  0.43513980  0.96369212    -0.22800
F900        F  0.49666735  0.45601918  0.98297320    -0.24400
C901        C  0.57052671  0.64630212  0.01035454    -0.11300
C902        C  0.59611577  0.68716695  0.00736527     0.11300
C903        C  0.63149718  0.70682335  0.02129689    -0.03100
C904        C  0.64209144  0.68397915  0.03595044    -0.05800
C905        C  0.61809190  0.64279402  0.03752845    -0.16600
C906        C  0.58097937  0.62349988  0.02547045     0.02300
C907        C  0.58816391  0.70867240  0.98777369     0.12300
C908        C  0.65856555  0.75158541  0.02012847     0.62900
H909        H  0.67013299  0.69794571  0.04563346     0.12300
C910        C  0.55378468  0.57899640  0.02752527     0.55000
H911        H  0.54334332  0.63221363  0.99979908     0.08100
C912        C  0.60492829  0.71296301  0.96390565    -0.05700
C913        C  0.61075635  0.74529883  0.94933051    -0.06400
C914        C  0.59881080  0.77164251  0.95785488    -0.16000
C915        C  0.57515807  0.76259835  0.97933992    -0.01600
C916        C  0.57053323  0.73113671  0.99439329    -0.09100
C917        C  0.61860455  0.68491181  0.95466657     0.65100
H918        H  0.62787062  0.75230100  0.93237455     0.10600
C919        C  0.55569963  0.78668096  0.98622399     0.63500
H920        H  0.55609601  0.72601884  0.01225424     0.07900
F921        F  0.57273097  0.55951101  0.01852520    -0.19500
F922        F  0.51923408  0.56629320  0.01423513    -0.15800
F923        F  0.54361988  0.56867217  0.05203560    -0.19200
F924        F  0.63801931  0.77022024  0.02766692    -0.22600
F925        F  0.67225488  0.76329498  0.99625913    -0.24100
F926        F  0.69111585  0.76427961  0.03539868    -0.18100
F927        F  0.53229906  0.77185256  0.00717216    -0.20600
F928        F  0.53189342  0.78533474  0.96690733    -0.21700
F929        F  0.58397658  0.82572874  0.99064425    -0.18900
F930        F  0.63253662  0.69350583  0.93057525    -0.19000
F931        F  0.58712572  0.64646333  0.95523054    -0.22800
F932        F  0.64861931  0.68740481  0.96945381    -0.24400
C933        C  0.80647861  0.54896772  0.02852738    -0.11300
C934        C  0.81403232  0.56262946  0.00407965     0.11300
C935        C  0.79189087  0.57810909  0.99301785    -0.03100
C936        C  0.76390156  0.58140522  0.00751745    -0.05800
C937        C  0.75697640  0.56910850  0.03240113    -0.16600
C938        C  0.77817672  0.55192642  0.04311571     0.02300
C939        C  0.84763393  0.56342734  0.99111860     0.12300
C940        C  0.79728665  0.59039766  0.96593313     0.62900
H941        H  0.74676296  0.59331691  0.99926072     0.12300
C942        C  0.77192655  0.53746213  0.06973114     0.55000
H943        H  0.82381969  0.53683478  0.03621800     0.08100
C944        C  0.88639810  0.59556130  0.99418472    -0.05700
C945        C  0.91687020  0.59593483  0.98031344    -0.06400
C946        C  0.90990932  0.56524711  0.96375706    -0.16000
C947        C  0.87104857  0.53227229  0.96135843    -0.01600
C948        C  0.84037773  0.53211675  0.97522182    -0.09100
C949        C  0.89547623  0.62944884  0.01191403     0.65100
H950        H  0.94661339  0.62076554  0.98222105     0.10600
C951        C  0.86171540  0.49731684  0.94463533     0.63500
H952        H  0.81027209  0.50779989  0.97358230     0.07900
F953        F  0.79823754  0.52506505  0.07656599    -0.19500
F954        F  0.73404512  0.50561986  0.07258756    -0.15800
F955        F  0.77741989  0.56776125  0.08553655    -0.19200
F956        F  0.78488557  0.55718177  0.95126423    -0.22600
F957        F  0.83658401  0.61700158  0.96079004    -0.24100
F958        F  0.77547478  0.60830896  0.95964919    -0.18100
F959        F  0.82282075  0.46717431  0.94716841    -0.20600
F960        F  0.88581901  0.48182142  0.95049129    -0.21700
F961        F  0.86761584  0.50949491  0.92019772    -0.18900
F962        F  0.93509942  0.65831631  0.01138712    -0.19000
F963        F  0.88610312  0.61509030  0.03582772    -0.22800
F964        F  0.87363823  0.64727549  0.00569127    -0.24400
C965        C  0.77846893  0.67455161  0.16213656    -0.11300
C966        C  0.79905179  0.71492407  0.15560800     0.11300
C967        C  0.79108383  0.72673987  0.13263639    -0.03100
C968        C  0.76121850  0.69790409  0.11750901    -0.05800
C969        C  0.74034297  0.65719263  0.12375907    -0.16600
C970        C  0.74959831  0.64524493  0.14648544     0.02300
C971        C  0.82845439  0.74423942  0.17336917     0.12300
C972        C  0.81538316  0.76935081  0.12358891     0.62900
H973        H  0.75479313  0.70713146  0.10007963     0.12300
C974        C  0.73015941  0.60197041  0.15405666     0.55000
H975        H  0.78549838  0.66620056  0.17969917     0.08100
C976        C  0.81711808  0.76294140  0.19149390    -0.05700
C977        C  0.84598785  0.79000569  0.20782424    -0.06400
C978        C  0.88464248  0.79578463  0.20856359    -0.16000
C979        C  0.89592784  0.77664346  0.19068367    -0.01600
C980        C  0.86778888  0.75192760  0.17287180    -0.09100
C981        C  0.77403579  0.75176220  0.19504444     0.65100
H982        H  0.83754912  0.80422108  0.22191344     0.10600
C983        C  0.93661804  0.78056993  0.19130350     0.63500
H984        H  0.87574242  0.73695066  0.15905051     0.07900
F985        F  0.68990447  0.58676170  0.15705592    -0.19500
F986        F  0.74507720  0.59703451  0.17615088    -0.15800
F987        F  0.73685468  0.58062965  0.13610001    -0.19200
F988        F  0.85464279  0.77937224  0.12156155    -0.22600
F989        F  0.81251471  0.79508978  0.13994173    -0.24100
F990        F  0.80297128  0.77458654  0.10064136    -0.18100
F991        F  0.94266883  0.76813513  0.21401937    -0.20600
F992        F  0.96529612  0.81968107  0.18749093    -0.21700
F993        F  0.94093838  0.75788125  0.17316369    -0.18900
F994        F  0.76944024  0.77314039  0.21397260    -0.19000
F995        F  0.75187678  0.71194446  0.20097885    -0.22800
F996        F  0.75911516  0.75872114  0.17369559    -0.24400
C997        C  0.12712216  0.07248838  0.68183228    -0.11300
C998        C  0.16249384  0.07280820  0.67623360     0.11300
C999        C  0.17031331  0.04494256  0.68814754    -0.03100
C1000       C  0.14249676  0.01790340  0.70536845    -0.05800
C1001       C  0.10737860  0.01799920  0.71132855    -0.16600
C1002       C  0.09951394  0.04562603  0.69919946     0.02300
C1003       C  0.19094727  0.10284064  0.65799558     0.12300
C1004       C  0.20859883  0.04474261  0.68329296     0.62900
H1005       H  0.14891930  0.99765107  0.71536188     0.12300
C1006       C  0.06193764  0.04652610  0.70466444     0.55000
H1007       H  0.12155470  0.09395617  0.67265259     0.08100
C1008       C  0.18649985  0.09635320  0.63216172    -0.05700
C1009       C  0.21540059  0.12469648  0.61608945    -0.06400
C1010       C  0.24813739  0.16016156  0.62466484    -0.16000
C1011       C  0.25141194  0.16758128  0.65058867    -0.01600
C1012       C  0.22282061  0.13858640  0.66675571    -0.09100
C1013       C  0.15095772  0.05977941  0.62156383     0.65100
H1014       H  0.21219965  0.11936726  0.59635889     0.10600
C1015       C  0.28497590  0.20545934  0.66131183     0.63500
H1016       H  0.22517017  0.14346637  0.68654791     0.07900
F1017       F  0.03012321  0.01035200  0.69828228    -0.19500
F1018       F  0.05965936  0.07562303  0.69125705    -0.15800
F1019       F  0.05981000  0.05359091  0.72955082    -0.19200
F1020       F  0.24045128  0.08062016  0.69038615    -0.22600
F1021       F  0.21209655  0.03891200  0.65840413    -0.24100
F1022       F  0.21018834  0.01494515  0.69632880    -0.18100
F1023       F  0.28344551  0.20584534  0.68690170    -0.20600
F1024       F  0.28273584  0.23773045  0.65265553    -0.21700
F1025       F  0.32090570  0.20918778  0.65450775    -0.18900
F1026       F  0.15268732  0.05852655  0.59601773    -0.19000
F1027       F  0.11664251  0.05990685  0.62788501    -0.22800
F1028       F  0.14909644  0.02579156  0.63084232    -0.24400
C1029       C  0.21577692  0.13611203  0.84732834    -0.11300
C1030       C  0.18916938  0.09766184  0.85600365     0.11300
C1031       C  0.19105485  0.08854813  0.88116790    -0.03100
C1032       C  0.21753552  0.11901124  0.89713462    -0.05800
C1033       C  0.24346951  0.15788364  0.88869913    -0.16600
C1034       C  0.24312705  0.16637737  0.86319918     0.02300
C1035       C  0.16003794  0.06743026  0.83822539     0.12300
C1036       C  0.16552863  0.04662067  0.89101278     0.62900
H1037       H  0.21842822  0.11251186  0.91652618     0.12300
C1038       C  0.27057442  0.20748041  0.85294484     0.55000
H1039       H  0.21465179  0.14230379  0.82791278     0.08100
C1040       C  0.12283976  0.06387298  0.83327886    -0.05700
C1041       C  0.09714025  0.03513074  0.81604786    -0.06400
C1042       C  0.10746512  0.01022223  0.80262628    -0.16000
C1043       C  0.14600650  0.01499063  0.80749708    -0.01600
C1044       C  0.17074344  0.04293540  0.82544864    -0.09100
C1045       C  0.11147400  0.09228027  0.84508982     0.65100
H1046       H  0.06989186  0.03450753  0.81174580     0.10600
C1047       C  0.16244423  0.99149850  0.79425408     0.63500
H1048       H  0.19950614  0.04653320  0.82956441     0.07900
F1049       F  0.26366866  0.21028551  0.82813118    -0.19500
F1050       F  0.30944339  0.21636813  0.85537008    -0.15800
F1051       F  0.26506275  0.23517895  0.86572918    -0.19200
F1052       F  0.17413609  0.02099262  0.87829364    -0.22600
F1053       F  0.12591782  0.03445323  0.88798483    -0.24100
F1054       F  0.17205285  0.04391981  0.91591572    -0.18100
F1055       F  0.20193833  0.00568586  0.79972723    -0.20600
F1056       F  0.16014135  0.99376662  0.76889132    -0.21700
F1057       F  0.14207970  0.95235584  0.80172053    -0.18900
F1058       F  0.07345748  0.08319390  0.83889189    -0.19000
F1059       F  0.13729437  0.13049519  0.83714319    -0.22800
F1060       F  0.11341693  0.09096465  0.87056396    -0.24400
C1061       C  0.82473664  0.88290918  0.68477326    -0.11300
C1062       C  0.83759428  0.91871773  0.67226813     0.11300
C1063       C  0.87688293  0.94975576  0.67588889    -0.03100
C1064       C  0.90152062  0.94427816  0.69275249    -0.05800
C1065       C  0.88882423  0.90845305  0.70604576    -0.16600
C1066       C  0.84947766  0.87625602  0.70082495     0.02300
C1067       C  0.80921660  0.92195732  0.65491455     0.12300
C1068       C  0.89229772  0.98921358  0.66260222     0.62900
H1069       H  0.93031647  0.96921305  0.69615466     0.12300
C1070       C  0.83279676  0.83396410  0.71072151     0.55000
H1071       H  0.79475251  0.85953955  0.68121233     0.08100
C1072       C  0.80333982  0.90707450  0.63042029    -0.05700
C1073       C  0.77675734  0.91153234  0.61491574    -0.06400
C1074       C  0.75373809  0.92781152  0.62340117    -0.16000
C1075       C  0.75759297  0.94025817  0.64840379    -0.01600
C1076       C  0.78592932  0.93785480  0.66361775    -0.09100
C1077       C  0.82418304  0.88546441  0.62088500     0.65100
H1078       H  0.77300250  0.90133687  0.59594724     0.10600
C1079       C  0.73204892  0.95606814  0.65887895     0.63500
H1080       H  0.78971742  0.94779898  0.68263738     0.07900
F1081       F  0.79337273  0.80984529  0.70454831    -0.19500
F1082       F  0.83480564  0.83310854  0.73612208    -0.15800
F1083       F  0.85317984  0.81691549  0.70043755    -0.19200
F1084       F  0.87169599  0.00751151  0.67066889    -0.22600
F1085       F  0.88732720  0.98336425  0.63735121    -0.24100
F1086       F  0.93217432  0.01453456  0.66696375    -0.18100
F1087       F  0.74234911  0.96931588  0.68294117    -0.20600
F1088       F  0.69285795  0.92619985  0.65887530    -0.21700
F1089       F  0.73610719  0.98744543  0.64464246    -0.18900
F1090       F  0.81542477  0.87461328  0.59632305    -0.19000
F1091       F  0.81225714  0.85130439  0.63456372    -0.22800
F1092       F  0.86471513  0.90934393  0.62287834    -0.24400
C1093       C  0.76677058  0.89174771  0.83812051    -0.11300
C1094       C  0.79426090  0.88167911  0.84750386     0.11300
C1095       C  0.79115236  0.87010638  0.87258976    -0.03100
C1096       C  0.76007587  0.86800190  0.88719048    -0.05800
C1097       C  0.73256036  0.87848162  0.87809928    -0.16600
C1098       C  0.73605983  0.89058138  0.85293774     0.02300
C1099       C  0.82589503  0.88343562  0.83059811     0.12300
C1100       C  0.82131078  0.86113252  0.88415595     0.62900
H1101       H  0.75794741  0.85913826  0.90635453     0.12300
C1102       C  0.70785149  0.90236438  0.84164988     0.55000
H1103       H  0.76987859  0.90094100  0.81895247     0.08100
C1104       C  0.81843144  0.85227597  0.81398776    -0.05700
C1105       C  0.84882876  0.85666571  0.79769161    -0.06400
C1106       C  0.88605154  0.89160281  0.79670885    -0.16000
C1107       C  0.89397173  0.92199489  0.81408428    -0.01600
C1108       C  0.86381530  0.91732851  0.83080018    -0.09100
C1109       C  0.77781930  0.81531028  0.81262935     0.65100
H1110       H  0.84273451  0.83384828  0.78414179     0.10600
C1111       C  0.93394116  0.95947756  0.81460397     0.63500
H1112       H  0.86920931  0.94077379  0.84371112     0.07900
F1113       F  0.66930655  0.87160033  0.84422185    -0.19500
F1114       F  0.71515080  0.91091315  0.81668402    -0.15800
F1115       F  0.71201256  0.93585721  0.85334679    -0.19200
F1116       F  0.85803823  0.89513702  0.88423218    -0.22600
F1117       F  0.82365241  0.83204221  0.87083502    -0.24100
F1118       F  0.81160528  0.84802117  0.90834668    -0.18100
F1119       F  0.93598095  0.98532207  0.83291752    -0.20600
F1120       F  0.94150027  0.97891442  0.79211498    -0.21700
F1121       F  0.96273497  0.94955296  0.81925822    -0.18900
F1122       F  0.77733864  0.78759746  0.79635027    -0.19000
F1123       F  0.75033519  0.82539180  0.80465128    -0.22800
F1124       F  0.76660604  0.79769218  0.83567252    -0.24400
C1125       C  0.98934549  0.67026238  0.65930278    -0.11300
C1126       C  0.00490903  0.70939783  0.65053797     0.11300
C1127       C  0.01951434  0.71801934  0.62594668    -0.03100
C1128       C  0.01496368  0.68671055  0.61043592    -0.05800
C1129       C  0.99806438  0.64714732  0.61877507    -0.16600
C1130       C  0.98607662  0.63904496  0.64396806     0.02300
C1131       C  0.00535338  0.74070865  0.66737176     0.12300
C1132       C  0.04029737  0.76032089  0.61619274     0.62900
H1133       H  0.02509906  0.69312589  0.59143530     0.12300
C1134       C  0.96924257  0.59762557  0.65453375     0.55000
H1135       H  0.97941359  0.66430789  0.67835611     0.08100
C1136       C  0.97178583  0.74513036  0.67079748    -0.05700
C1137       C  0.97387527  0.77451991  0.68722035    -0.06400
C1138       C  0.00857111  0.80068194  0.70050487    -0.16000
C1139       C  0.04299596  0.79675417  0.69609201    -0.01600
C1140       C  0.04014664  0.76655063  0.67998233    -0.09100
C1141       C  0.93327740  0.71790081  0.65754375     0.65100
H1142       H  0.94697284  0.77499879  0.69061353     0.10600
C1143       C  0.08342660  0.82413726  0.70760080     0.63500
H1144       H  0.06547331  0.76271384  0.67691159     0.07900
F1145       F  0.93668459  0.57118253  0.64093345    -0.19500
F1146       F  0.95741898  0.59560039  0.67892586    -0.15800
F1147       F  0.99776708  0.58642516  0.65367845    -0.19200
F1148       F  0.07409690  0.78328651  0.62984265    -0.22600
F1149       F  0.01559228  0.77617374  0.61801148    -0.24100
F1150       F  0.05145402  0.76230783  0.59165951    -0.18100
F1151       F  0.08104946  0.82495277  0.73304669    -0.20600
F1152       F  0.09862172  0.86200625  0.69824772    -0.21700
F1153       F  0.11060701  0.81216226  0.70213712    -0.18900
F1154       F  0.90431179  0.72765453  0.66248193    -0.19000
F1155       F  0.91920495  0.67915489  0.66503560    -0.22800
F1156       F  0.93956557  0.72047309  0.63226478    -0.24400
C1157       C  0.97310148  0.74738161  0.82185094    -0.11300
C1158       C  0.00803816  0.74582280  0.82528344     0.11300
C1159       C  0.04282034  0.77312105  0.81238346    -0.03100
C1160       C  0.04104524  0.80034887  0.79592467    -0.05800
C1161       C  0.00561599  0.80057597  0.79149180    -0.16600
C1162       C  0.97126478  0.77424574  0.80502486     0.02300
C1163       C  0.00720560  0.71482661  0.84213104     0.12300
C1164       C  0.08126472  0.77245258  0.81526845     0.62900
H1165       H  0.06681434  0.82003383  0.78499828     0.12300
C1166       C  0.93246912  0.77341098  0.80072577     0.55000
H1167       H  0.94682819  0.72633439  0.83187009     0.08100
C1168       C  0.01197802  0.72065502  0.86793819    -0.05700
C1169       C  0.01270747  0.69119742  0.88264673    -0.06400
C1170       C  0.00756382  0.65523635  0.87281460    -0.16000
C1171       C  0.00135589  0.64883451  0.84690528    -0.01600
C1172       C  0.00143744  0.67894837  0.83203987    -0.09100
C1173       C  0.01529787  0.75749631  0.88004030     0.65100
H1174       H  0.01686768  0.69618904  0.90236348     0.10600
C1175       C  0.99457758  0.61072060  0.83488172     0.63500
H1176       H  0.99716239  0.67487180  0.81224516     0.07900
F1177       F  0.90278713  0.74659919  0.81619954    -0.19500
F1178       F  0.92045282  0.76268719  0.77653298    -0.15800
F1179       F  0.93738819  0.81061512  0.80516389    -0.19200
F1180       F  0.07591535  0.73607642  0.80789831    -0.22600
F1181       F  0.09316202  0.77881029  0.83969152    -0.24100
F1182       F  0.11148246  0.80146274  0.80108626    -0.18100
F1183       F  0.98784970  0.61026686  0.80971431    -0.20600
F1184       F  0.96184371  0.57866134  0.84537572    -0.21700
F1185       F  0.02754144  0.60666318  0.83815525    -0.18900
F1186       F  0.02139865  0.75815899  0.90529471    -0.19000
F1187       F  0.98071401  0.75840068  0.87629860    -0.22800
F1188       F  0.04656176  0.79131151  0.86996666    -0.24400
loop_ 
_geom_bond_atom_site_label_1 
_geom_bond_atom_site_label_2 
_geom_bond_distance 
_geom_bond_site_symmetry_2 
_ccdc_geom_bond_type 
C1            C2   1.560   1_455  S
C1            C7   1.518       .  S
C1            C5   1.556       .  S
C1         C1138   1.572       .  S
C2            H9   1.077       .  S
C2            C3   1.387       .  D
C3            C4   1.555   1_655  S
C3           C18   1.530       .  S
C4            C8   1.550       .  S
C4            C6   1.540       .  S
C4           H10   1.106       .  S
C5           H11   1.082       .  S
C5            C6   1.375       .  D
C6           C30   1.498       .  S
C7           H12   1.088       .  S
C7            C8   1.349       .  D
C8         C1161   1.494       .  S
C13          C14   1.560       .  S
C13          C19   1.517       .  S
C13          C17   1.544       .  S
C13        C1065   1.569       .  S
C14          H21   1.072       .  S
C14          C15   1.377       .  D
C15          C16   1.553       .  S
C15          C27   1.512   1_655  S
C16          C20   1.564       .  S
C16          C18   1.560       .  S
C16          H22   1.106       .  S
C17          H23   1.077       .  S
C17          C18   1.382       .  D
C19          H24   1.088       .  S
C19          C20   1.352       .  D
C20        C1106   1.508       .  S
C25          C26   1.561       .  S
C25          C31   1.526   1_565  S
C25          C29   1.550       .  S
C25        C1042   1.567   1_565  S
C26          H33   1.081       .  S
C26          C27   1.378       .  D
C27          C28   1.555       .  S
C28          C32   1.555       .  S
C28          C30   1.547       .  S
C28          H34   1.111       .  S
C29          H35   1.082       .  S
C29          C30   1.374       .  D
C31          H36   1.088       .  S
C31          C32   1.352   1_545  D
C32        C1001   1.503   1_565  S
In37         O39   2.233       .  S
In37         O40   2.201       .  S
In37         O48   2.210       .  S
In37         O42   2.282       .  S
In37         O44   2.302       .  S
In37         O45   2.202       .  S
In37         O46   2.217       .  S
In37         O49   2.250       .  S
C38          O44   1.271       .  A
C38          O46   1.258       .  A
C38         C969   1.506       .  S
O39          C47   1.264       .  A
O40          C47   1.263       .  A
C41          O48   1.257       .  A
C41          O42   1.274       .  A
C41         C873   1.487       .  S
C43          O45   1.261       .  A
C43          O49   1.264       .  A
C43         C905   1.466       .  S
C47         C937   1.479       .  S
In50         O52   2.236   1_455  S
In50         O53   2.189   1_455  S
In50         O61   2.180       .  S
In50         O55   2.301   1_455  S
In50         O57   2.306       .  S
In50         O58   2.183       .  S
In50         O59   2.196       .  S
In50         O62   2.245       .  S
C51          O57   1.276       .  A
C51          O59   1.259       .  A
C51        C1170   1.508       .  S
O52          C60   1.266       .  A
O53          C60   1.263       .  A
C54          O61   1.255       .  A
C54          O55   1.278   1_455  A
C54         C818   1.498   1_455  S
C56          O58   1.261       .  A
C56          O62   1.267       .  A
C56         C841   1.461       .  S
C60         C946   1.478       .  S
In63         O65   2.221       .  S
In63         O66   2.207       .  S
In63         O74   2.224       .  S
In63         O68   2.292       .  S
In63         O70   2.291       .  S
In63         O71   2.194       .  S
In63         O72   2.218       .  S
In63         O75   2.245       .  S
C64          O70   1.275       .  A
C64          O72   1.262       .  A
C64        C1097   1.512       .  S
O65          C73   1.267       .  A
O66          C73   1.265       .  A
C67          O74   1.261       .  A
C67          O68   1.275       .  A
C67         C745   1.504       .  S
C69          O71   1.264       .  A
C69          O75   1.266       .  A
C69         C914   1.461       .  S
C73         C786   1.471       .  S
In76         O78   2.217   1_455  S
In76         O79   2.209   1_455  S
In76         O87   2.214       .  S
In76         O81   2.295       .  S
In76         O83   2.310   1_455  S
In76         O84   2.207       .  S
In76         O85   2.230       .  S
In76         O88   2.248       .  S
C77          O83   1.272   1_455  A
C77          O85   1.258       .  A
C77         C713   1.507       .  S
O78          C86   1.267       .  A
O79          C86   1.263       .  A
C80          O87   1.255       .  A
C80          O81   1.273       .  A
C80         C809   1.486   1_455  S
C82          O84   1.261       .  A
C82          O88   1.264       .  A
C82         C690   1.463       .  S
C86         C777   1.475       .  S
In89         O91   2.197       .  S
In89         O92   2.206       .  S
In89        O100   2.204       .  S
In89         O94   2.277       .  S
In89         O96   2.284       .  S
In89         O97   2.191       .  S
In89         O98   2.234       .  S
In89        O101   2.237       .  S
C90          O96   1.274       .  A
C90          O98   1.263       .  A
C90        C1033   1.503       .  S
O91          C99   1.268       .  A
O92          C99   1.267       .  A
C93         O100   1.260       .  A
C93          O94   1.277       .  A
C93         C882   1.489       .  S
C95          O97   1.265       .  A
C95         O101   1.266       .  A
C95         C681   1.459       .  S
C99         C649   1.472       .  S
In102       O104   2.227       .  S
In102       O105   2.194       .  S
In102       O113   2.206       .  S
In102       O107   2.309       .  S
In102       O109   2.301       .  S
In102       O110   2.188       .  S
In102       O111   2.219       .  S
In102       O114   2.243       .  S
C103        O109   1.274       .  A
C103        O111   1.257       .  A
C103        C626   1.503       .  S
O104        C112   1.267       .  A
O105        C112   1.261       .  A
C106        O113   1.257       .  A
C106        O107   1.274       .  A
C106        C754   1.502       .  S
C108        O110   1.260       .  A
C108        O114   1.266       .  A
C108        C850   1.458       .  S
C112        C658   1.469       .  S
C115        C116   1.547       .  S
C115        C121   1.527       .  S
C115        C119   1.552       .  S
C115        C585   1.562       .  S
C116        H123   1.078       .  S
C116        C117   1.380       .  D
C117        C118   1.560       .  S
C117        C144   1.524   1_655  S
C118        C122   1.551       .  S
C118        C120   1.535       .  S
C118        H124   1.105       .  S
C119        H125   1.086       .  S
C119        C120   1.374       .  D
C120        C132   1.495       .  S
C121        H126   1.087       .  S
C121        C122   1.355       .  D
C122        C978   1.498       .  S
C127        C128   1.541   1_655  S
C127        C133   1.525   1_565  S
C127        C131   1.564       .  S
C127        C722   1.559   1_565  S
C128        H135   1.082       .  S
C128        C129   1.366       .  D
C129        C130   1.552   1_455  S
C129        C141   1.491       .  S
C130        C134   1.543       .  S
C130        C132   1.540       .  S
C130        H136   1.111       .  S
C131        H137   1.084       .  S
C131        C132   1.382       .  D
C133        H138   1.088       .  S
C133        C134   1.354   1_545  D
C134        C553   1.495   1_565  S
C139        C140   1.540       .  S
C139        C145   1.522       .  S
C139        C143   1.559       .  S
C139        C521   1.558       .  S
C140        H147   1.082       .  S
C140        C141   1.365       .  D
C141        C142   1.545       .  S
C142        C146   1.557       .  S
C142        C144   1.555       .  S
C142        H148   1.107       .  S
C143        H149   1.080       .  S
C143        C144   1.387       .  D
C145        H150   1.088       .  S
C145        C146   1.350       .  D
C146        C617   1.501       .  S
In151       O153   2.216       .  S
In151       O154   2.224       .  S
In151       O162   2.209       .  S
In151       O156   2.298       .  S
In151       O158   2.293       .  S
In151       O159   2.198       .  S
In151       O160   2.228       .  S
In151       O163   2.244       .  S
C152        O158   1.273       .  A
C152        O160   1.259       .  A
C152        C594   1.491       .  S
O153        C161   1.266       .  A
O154        C161   1.263       .  A
C155        O162   1.258       .  A
C155        O156   1.275       .  A
C155        C425   1.502       .  S
C157        O159   1.263       .  A
C157        O163   1.266       .  A
C157        C489   1.462       .  S
C161        C457   1.484       .  S
In164       O166   2.225   1_655  S
In164       O167   2.194   1_655  S
In164       O175   2.217       .  S
In164       O169   2.299       .  S
In164       O171   2.309       .  S
In164       O172   2.202       .  S
In164       O173   2.235       .  S
In164       O176   2.243       .  S
C165        O171   1.276       .  A
C165        O173   1.262       .  A
C165       C1129   1.513       .  S
O166        C174   1.267       .  A
O167        C174   1.267       .  A
C168        O175   1.260       .  A
C168        O169   1.278       .  A
C168        C361   1.497       .  S
C170        O172   1.263       .  A
C170        O176   1.266       .  A
C170        C498   1.464       .  S
C174        C393   1.474       .  S
In177       O179   2.231       .  S
In177       O180   2.226       .  S
In177       O188   2.251       .  S
In177       O182   2.278       .  S
In177       O184   2.313       .  S
In177       O185   2.215       .  S
In177       O186   2.245       .  S
In177       O189   2.260       .  S
C178        O184   1.268       .  A
C178        O186   1.257       .  A
C178       C1010   1.511       .  S
O179        C187   1.267       .  A
O180        C187   1.262       .  A
C181        O188   1.254       .  A
C181        O182   1.263       .  A
C181        C434   1.502       .  S
C183        O185   1.259       .  A
C183        O189   1.263       .  A
C183        C297   1.468       .  S
C187        C329   1.489       .  S
In190       O192   2.228       .  S
In190       O193   2.191       .  S
In190       O201   2.189       .  S
In190       O195   2.277       .  S
In190       O197   2.285       .  S
In190       O198   2.193       .  S
In190       O199   2.203       .  S
In190       O202   2.234       .  S
C191        O197   1.278       .  A
C191        O199   1.260       .  A
C191        C530   1.504       .  S
O192        C200   1.268       .  A
O193        C200   1.269       .  A
C194        O201   1.261       .  A
C194        O195   1.280       .  A
C194        C265   1.496       .  S
C196        O198   1.267       .  A
C196        O202   1.268       .  A
C196        C306   1.464   1_565  S
C200        C402   1.480       .  S
In203       O205   2.232   1_655  S
In203       O206   2.199   1_655  S
In203       O214   2.206   1_655  S
In203       O208   2.292       .  S
In203       O210   2.294       .  S
In203       O211   2.197       .  S
In203       O212   2.207       .  S
In203       O215   2.244       .  S
C204        O210   1.272       .  A
C204        O212   1.259       .  A
C204        C562   1.506       .  S
O205        C213   1.267       .  A
O206        C213   1.261       .  A
C207        O214   1.257   1_655  A
C207        O208   1.275       .  A
C207        C370   1.496   1_655  S
C209        O211   1.262       .  A
C209        O215   1.265       .  A
C209        C233   1.463       .  S
C213        C338   1.480       .  S
In216       O218   2.227       .  S
In216       O219   2.215       .  S
In216       O227   2.208       .  S
In216       O221   2.291       .  S
In216       O223   2.293       .  S
In216       O224   2.199       .  S
In216       O225   2.230       .  S
In216       O228   2.257   1_565  S
C217        O223   1.272       .  A
C217        O225   1.260       .  A
C217       C1074   1.500       .  S
O218        C226   1.268       .  A
O219        C226   1.263       .  A
C220        O227   1.256       .  A
C220        O221   1.273       .  A
C220        C274   1.482       .  S
C222        O224   1.260   1_545  A
C222        O228   1.263       .  A
C222        C242   1.461       .  S
C226        C466   1.486       .  S
C229        C230   1.400       .  A
C229        C234   1.406       .  A
C229        H239   1.083       .  S
C230        C235   1.475       .  S
C230        C231   1.418       .  A
C231        C236   1.522       .  S
C231        C232   1.400       .  A
C232        C233   1.397       .  A
C232        H237   1.084       .  S
C233        C234   1.416       .  A
C234        C238   1.517       .  S
C235        C240   1.416       .  A
C235        C244   1.399       .  A
C236        F252   1.382       .  S
C236        F253   1.382       .  S
C236        F254   1.385       .  S
C238        F249   1.384       .  S
C238        F250   1.383       .  S
C238        F251   1.382       .  S
C240        C245   1.517       .  S
C240        C241   1.403       .  A
C241        C242   1.397       .  A
C241        H246   1.084       .  S
C242        C243   1.413       .  A
C243        C247   1.515       .  S
C243        C244   1.403       .  A
C244        H248   1.084       .  S
C245        F258   1.385       .  S
C245        F259   1.383       .  S
C245        F260   1.382       .  S
C247        F255   1.385       .  S
C247        F256   1.383       .  S
C247        F257   1.382       .  S
C261        C262   1.398       .  A
C261        C266   1.408       .  A
C261        H271   1.083       .  S
C262        C267   1.493       .  S
C262        C263   1.419       .  A
C263        C268   1.519       .  S
C263        C264   1.414       .  A
C264        C265   1.406       .  A
C264        H269   1.083       .  S
C265        C266   1.428       .  A
C266        C270   1.522       .  S
C267        C272   1.420       .  A
C267        C276   1.401       .  A
C268        F284   1.382       .  S
C268        F285   1.382       .  S
C268        F286   1.384       .  S
C270        F281   1.383       .  S
C270        F282   1.385       .  S
C270        F283   1.383       .  S
C272        C277   1.519       .  S
C272        C273   1.414       .  A
C273        C274   1.404       .  A
C273        H278   1.083       .  S
C274        C275   1.418       .  A
C275        C279   1.518       .  S
C275        C276   1.408       .  A
C276        H280   1.083       .  S
C277        F290   1.385   1_565  S
C277        F291   1.382       .  S
C277        F292   1.382   1_565  S
C279        F287   1.385       .  S
C279        F288   1.383       .  S
C279        F289   1.382       .  S
C293        C294   1.400       .  A
C293        C298   1.405       .  A
C293        H303   1.083       .  S
C294        C299   1.479       .  S
C294        C295   1.419       .  A
C295        C300   1.520       .  S
C295        C296   1.404       .  A
C296        C297   1.397       .  A
C296        H301   1.083       .  S
C297        C298   1.416       .  A
C298        C302   1.518       .  S
C299        C304   1.418       .  A
C299        C308   1.402       .  A
C300        F316   1.382       .  S
C300        F317   1.383       .  S
C300        F318   1.384       .  S
C302        F313   1.382       .  S
C302        F314   1.385       .  S
C302        F315   1.382       .  S
C304        C309   1.520       .  S
C304        C305   1.400       .  A
C305        C306   1.396       .  A
C305        H310   1.082       .  S
C306        C307   1.414       .  A
C307        C311   1.517       .  S
C307        C308   1.407       .  A
C308        H312   1.083       .  S
C309        F322   1.385       .  S
C309        F323   1.382       .  S
C309        F324   1.383       .  S
C311        F319   1.384       .  S
C311        F320   1.383       .  S
C311        F321   1.382       .  S
C325        C326   1.397       .  A
C325        C330   1.406       .  A
C325        H335   1.083       .  S
C326        C331   1.474       .  S
C326        C327   1.413       .  A
C327        C332   1.523       .  S
C327        C328   1.403       .  A
C328        C329   1.408       .  A
C328        H333   1.082       .  S
C329        C330   1.427       .  A
C330        C334   1.521       .  S
C331        C336   1.411       .  A
C331        C340   1.397       .  A
C332        F348   1.382       .  S
C332        F349   1.381       .  S
C332        F350   1.384       .  S
C334        F345   1.383       .  S
C334        F346   1.385       .  S
C334        F347   1.383       .  S
C336        C341   1.519       .  S
C336        C337   1.404       .  A
C337        C338   1.408       .  A
C337        H342   1.082       .  S
C338        C339   1.423       .  A
C339        C343   1.521       .  S
C339        C340   1.401       .  A
C340        H344   1.084       .  S
C341        F354   1.385       .  S
C341        F355   1.382       .  S
C341        F356   1.381       .  S
C343        F351   1.384       .  S
C343        F352   1.383       .  S
C343        F353   1.385       .  S
C357        C358   1.400   1_455  A
C357        C362   1.410       .  A
C357        H367   1.083       .  S
C358        C363   1.500   1_655  S
C358        C359   1.421       .  A
C359        C364   1.518       .  S
C359        C360   1.419       .  A
C360        C361   1.406       .  A
C360        H365   1.083       .  S
C361        C362   1.424   1_655  A
C362        C366   1.519       .  S
C363        C368   1.420   1_455  A
C363        C372   1.400       .  A
C364        F380   1.383       .  S
C364        F381   1.382       .  S
C364        F382   1.384       .  S
C366        F377   1.382       .  S
C366        F378   1.385       .  S
C366        F379   1.383       .  S
C368        C373   1.518       .  S
C368        C369   1.416       .  A
C369        C370   1.406   1_655  A
C369        H374   1.083       .  S
C370        C371   1.425       .  A
C371        C375   1.520       .  S
C371        C372   1.410       .  A
C372        H376   1.083       .  S
C373        F386   1.385       .  S
C373        F387   1.382       .  S
C373        F388   1.382       .  S
C375        F383   1.384       .  S
C375        F384   1.383       .  S
C375        F385   1.385       .  S
C389        C390   1.400       .  A
C389        C394   1.405       .  A
C389        H399   1.083       .  S
C390        C395   1.474       .  S
C390        C391   1.412       .  A
C391        C396   1.520       .  S
C391        C392   1.399       .  A
C392        C393   1.404       .  A
C392        H397   1.083       .  S
C393        C394   1.419       .  A
C394        C398   1.518       .  S
C395        C400   1.413       .  A
C395        C404   1.399       .  A
C396        F412   1.382       .  S
C396        F413   1.383       .  S
C396        F414   1.385       .  S
C398        F409   1.384       .  S
C398        F410   1.385       .  S
C398        F411   1.383       .  S
C400        C405   1.522       .  S
C400        C401   1.398       .  A
C401        C402   1.405       .  A
C401        H406   1.083       .  S
C402        C403   1.422       .  A
C403        C407   1.519       .  S
C403        C404   1.407       .  A
C404        H408   1.083       .  S
C405        F418   1.385       .  S
C405        F419   1.382       .  S
C405        F420   1.382       .  S
C407        F415   1.383       .  S
C407        F416   1.383       .  S
C407        F417   1.385       .  S
C421        C422   1.398       .  A
C421        C426   1.409       .  A
C421        H431   1.083       .  S
C422        C427   1.498       .  S
C422        C423   1.419       .  A
C423        C428   1.519       .  S
C423        C424   1.418       .  A
C424        C425   1.409       .  A
C424        H429   1.083       .  S
C425        C426   1.428       .  A
C426        C430   1.522       .  S
C427        C432   1.417       .  A
C427        C436   1.402       .  A
C428        F444   1.382       .  S
C428        F445   1.381       .  S
C428        F446   1.385       .  S
C430        F441   1.383       .  S
C430        F442   1.385       .  S
C430        F443   1.384       .  S
C432        C437   1.520       .  S
C432        C433   1.412       .  A
C433        C434   1.408       .  A
C433        H438   1.082       .  S
C434        C435   1.427       .  A
C435        C439   1.520       .  S
C435        C436   1.413       .  A
C436        H440   1.083       .  S
C437        F450   1.385       .  S
C437        F451   1.382       .  S
C437        F452   1.381       .  S
C439        F447   1.384       .  S
C439        F448   1.383       .  S
C439        F449   1.385       .  S
C453        C454   1.400       .  A
C453        C458   1.406       .  A
C453        H463   1.083       .  S
C454        C459   1.476       .  S
C454        C455   1.410       .  A
C455        C460   1.519       .  S
C455        C456   1.402       .  A
C456        C457   1.407       .  A
C456        H461   1.082       .  S
C457        C458   1.424       .  A
C458        C462   1.520       .  S
C459        C464   1.415       .  A
C459        C468   1.400       .  A
C460        F476   1.382       .  S
C460        F477   1.383       .  S
C460        F478   1.385       .  S
C462        F473   1.385       .  S
C462        F474   1.383       .  S
C462        F475   1.384       .  S
C464        C469   1.520       .  S
C464        C465   1.401       .  A
C465        C466   1.406       .  A
C465        H470   1.084       .  S
C466        C467   1.425       .  A
C467        C471   1.521       .  S
C467        C468   1.406       .  A
C468        H472   1.083       .  S
C469        F482   1.384       .  S
C469        F483   1.383       .  S
C469        F484   1.381       .  S
C471        F479   1.385       .  S
C471        F480   1.383       .  S
C471        F481   1.384       .  S
C485        C486   1.404       .  A
C485        C490   1.402       .  A
C485        H495   1.084       .  S
C486        C491   1.476       .  S
C486        C487   1.413       .  A
C487        C492   1.517       .  S
C487        C488   1.405       .  A
C488        C489   1.402       .  A
C488        H493   1.084       .  S
C489        C490   1.409       .  A
C490        C494   1.517       .  S
C491        C496   1.415       .  A
C491        C500   1.404       .  A
C492        F508   1.382       .  S
C492        F509   1.383       .  S
C492        F510   1.385       .  S
C494        F505   1.385       .  S
C494        F506   1.383       .  S
C494        F507   1.383       .  S
C496        C501   1.517       .  S
C496        C497   1.405       .  A
C497        C498   1.402       .  A
C497        H502   1.085       .  S
C498        C499   1.409       .  A
C499        C503   1.517       .  S
C499        C500   1.401       .  A
C500        H504   1.084       .  S
C501        F514   1.383       .  S
C501        F515   1.383       .  S
C501        F516   1.382       .  S
C503        F511   1.383       .  S
C503        F512   1.383       .  S
C503        F513   1.384       .  S
C517        C518   1.395       .  A
C517        C522   1.413       .  A
C517        H527   1.083       .  S
C518        C523   1.498       .  S
C518        C519   1.413       .  A
C519        C524   1.520       .  S
C519        C520   1.412       .  A
C520        C521   1.416       .  A
C520        H525   1.079       .  S
C521        C522   1.445       .  A
C522        C526   1.534       .  S
C523        C528   1.418       .  A
C523        C532   1.398       .  A
C524        F540   1.382       .  S
C524        F541   1.382       .  S
C524        F542   1.385       .  S
C526        F537   1.385   1_565  S
C526        F538   1.379   1_565  S
C526        F539   1.378       .  S
C528        C533   1.518       .  S
C528        C529   1.415       .  A
C529        C530   1.407       .  A
C529        H534   1.082       .  S
C530        C531   1.431       .  A
C531        C535   1.522       .  S
C531        C532   1.411       .  A
C532        H536   1.083       .  S
C533        F546   1.384       .  S
C533        F547   1.383       .  S
C533        F548   1.382       .  S
C535        F543   1.385       .  S
C535        F544   1.383       .  S
C535        F545   1.383       .  S
C549        C550   1.406   1_455  A
C549        C554   1.414       .  A
C549        H559   1.083       .  S
C550        C555   1.494       .  S
C550        C551   1.415       .  A
C551        C556   1.520       .  S
C551        C552   1.407       .  A
C552        C553   1.408       .  A
C552        H557   1.083   1_545  S
C553        C554   1.416   1_655  A
C554        C558   1.515       .  S
C555        C560   1.412       .  A
C555        C564   1.405       .  A
C556        F572   1.382       .  S
C556        F573   1.382       .  S
C556        F574   1.385       .  S
C558        F569   1.382   1_545  S
C558        F570   1.385       .  S
C558        F571   1.383       .  S
C560        C565   1.522       .  S
C560        C561   1.407       .  A
C561        C562   1.414       .  A
C561        H566   1.082       .  S
C562        C563   1.424       .  A
C563        C567   1.517   1_655  S
C563        C564   1.417       .  A
C564        H568   1.083   1_655  S
C565        F578   1.385       .  S
C565        F579   1.382       .  S
C565        F580   1.382       .  S
C567        F575   1.385       .  S
C567        F576   1.383       .  S
C567        F577   1.383   1_455  S
C581        C582   1.406       .  A
C581        C586   1.417       .  A
C581        H591   1.084       .  S
C582        C587   1.506       .  S
C582        C583   1.416       .  A
C583        C588   1.520       .  S
C583        C584   1.412       .  A
C584        C585   1.416       .  A
C584        H589   1.083       .  S
C585        C586   1.427       .  A
C586        C590   1.517       .  S
C587        C592   1.422       .  A
C587        C596   1.404       .  A
C588        F604   1.382       .  S
C588        F605   1.383       .  S
C588        F606   1.385       .  S
C590        F601   1.383       .  S
C590        F602   1.385       .  S
C590        F603   1.383       .  S
C592        C597   1.517       .  S
C592        C593   1.417       .  A
C593        C594   1.403       .  A
C593        H598   1.083       .  S
C594        C595   1.419       .  A
C595        C599   1.518       .  S
C595        C596   1.413       .  A
C596        H600   1.083       .  S
C597        F610   1.385       .  S
C597        F611   1.382       .  S
C597        F612   1.383       .  S
C599        F607   1.382       .  S
C599        F608   1.383       .  S
C599        F609   1.384       .  S
C613        C614   1.404       .  A
C613        C618   1.412       .  A
C613        H623   1.084       .  S
C614        C619   1.507       .  S
C614        C615   1.421       .  A
C615        C620   1.519       .  S
C615        C616   1.418       .  A
C616        C617   1.408       .  A
C616        H621   1.083       .  S
C617        C618   1.422       .  A
C618        C622   1.516       .  S
C619        C624   1.423       .  A
C619        C628   1.401       .  A
C620        F636   1.382       .  S
C620        F637   1.382       .  S
C620        F638   1.384       .  S
C622        F633   1.383       .  S
C622        F634   1.383       .  S
C622        F635   1.379       .  S
C624        C629   1.518       .  S
C624        C625   1.418       .  A
C625        C626   1.405       .  A
C625        H630   1.083       .  S
C626        C627   1.429       .  A
C627        C631   1.523       .  S
C627        C628   1.412       .  A
C628        H632   1.083       .  S
C629        F642   1.385       .  S
C629        F643   1.381       .  S
C629        F644   1.382       .  S
C631        F639   1.385       .  S
C631        F640   1.383       .  S
C631        F641   1.384       .  S
C645        C646   1.398       .  A
C645        C650   1.400   1_554  A
C645        H655   1.083       .  S
C646        C651   1.467       .  S
C646        C647   1.411   1_554  A
C647        C652   1.520       .  S
C647        C648   1.399       .  A
C648        C649   1.406       .  A
C648        H653   1.083       .  S
C649        C650   1.420       .  A
C650        C654   1.520       .  S
C651        C656   1.412       .  A
C651        C660   1.396       .  A
C652        F668   1.382       .  S
C652        F669   1.383   1_556  S
C652        F670   1.385       .  S
C654        F665   1.383   1_556  S
C654        F666   1.385   1_556  S
C654        F667   1.383       .  S
C656        C661   1.520       .  S
C656        C657   1.402       .  A
C657        C658   1.404   1_545  A
C657        H662   1.083       .  S
C658        C659   1.421       .  A
C659        C663   1.521   1_554  S
C659        C660   1.399   1_565  A
C660        H664   1.083   1_554  S
C661        F674   1.384       .  S
C661        F675   1.382       .  S
C661        F676   1.383       .  S
C663        F671   1.383       .  S
C663        F672   1.384       .  S
C663        F673   1.385       .  S
C677        C678   1.406       .  A
C677        C682   1.404       .  A
C677        H687   1.083       .  S
C678        C683   1.479   1_556  S
C678        C679   1.413       .  A
C679        C684   1.514   1_556  S
C679        C680   1.401       .  A
C680        C681   1.401       .  A
C680        H685   1.085       .  S
C681        C682   1.407       .  A
C682        C686   1.515       .  S
C683        C688   1.414       .  A
C683        C692   1.407       .  A
C684        F700   1.383       .  S
C684        F701   1.384       .  S
C684        F702   1.383       .  S
C686        F697   1.384       .  S
C686        F698   1.383       .  S
C686        F699   1.384       .  S
C688        C693   1.515   1_554  S
C688        C689   1.405       .  A
C689        C690   1.403       .  A
C689        H694   1.085       .  S
C690        C691   1.408       .  A
C691        C695   1.517       .  S
C691        C692   1.401       .  A
C692        H696   1.083       .  S
C693        F706   1.383       .  S
C693        F707   1.383       .  S
C693        F708   1.383       .  S
C695        F703   1.383       .  S
C695        F704   1.383       .  S
C695        F705   1.384       .  S
C709        C710   1.401       .  A
C709        C714   1.414   1_655  A
C709        H719   1.083       .  S
C710        C715   1.507       .  S
C710        C711   1.422       .  A
C711        C716   1.519       .  S
C711        C712   1.419   1_655  A
C712        C713   1.407       .  A
C712        H717   1.083       .  S
C713        C714   1.429       .  A
C714        C718   1.522       .  S
C715        C720   1.416       .  A
C715        C724   1.396   1_655  A
C716        F732   1.382   1_655  S
C716        F733   1.382       .  S
C716        F734   1.384       .  S
C718        F729   1.384   1_455  S
C718        F730   1.385   1_455  S
C718        F731   1.382       .  S
C720        C725   1.519       .  S
C720        C721   1.418   1_545  A
C721        C722   1.417   1_565  A
C721        H726   1.077       .  S
C722        C723   1.443   1_655  A
C723        C727   1.531       .  S
C723        C724   1.414       .  A
C724        H728   1.083       .  S
C725        F738   1.385   1_545  S
C725        F739   1.382       .  S
C725        F740   1.382       .  S
C727        F735   1.380       .  S
C727        F736   1.380       .  S
C727        F737   1.385       .  S
C741        C742   1.406       .  A
C741        C746   1.416       .  A
C741        H751   1.083       .  S
C742        C747   1.503   1_556  S
C742        C743   1.416   1_556  A
C743        C748   1.520       .  S
C743        C744   1.413   1_554  A
C744        C745   1.411       .  A
C744        H749   1.083       .  S
C745        C746   1.421       .  A
C746        C750   1.516       .  S
C747        C752   1.416       .  A
C747        C756   1.409       .  A
C748        F764   1.382       .  S
C748        F765   1.383       .  S
C748        F766   1.385       .  S
C750        F761   1.383       .  S
C750        F762   1.385       .  S
C750        F763   1.382       .  S
C752        C757   1.520   1_554  S
C752        C753   1.408       .  A
C753        C754   1.410       .  A
C753        H758   1.083       .  S
C754        C755   1.421       .  A
C755        C759   1.517       .  S
C755        C756   1.419       .  A
C756        H760   1.083       .  S
C757        F770   1.385       .  S
C757        F771   1.382       .  S
C757        F772   1.382       .  S
C759        F767   1.385       .  S
C759        F768   1.383       .  S
C759        F769   1.383       .  S
C773        C774   1.398       .  A
C773        C778   1.405       .  A
C773        H783   1.083       .  S
C774        C779   1.471       .  S
C774        C775   1.412   1_556  A
C775        C780   1.521       .  S
C775        C776   1.399       .  A
C776        C777   1.403       .  A
C776        H781   1.083       .  S
C777        C778   1.422   1_554  A
C778        C782   1.520       .  S
C779        C784   1.412       .  A
C779        C788   1.398       .  A
C780        F796   1.383       .  S
C780        F797   1.382       .  S
C780        F798   1.384       .  S
C782        F793   1.385       .  S
C782        F794   1.383   1_655  S
C782        F795   1.383       .  S
C784        C789   1.519       .  S
C784        C785   1.403       .  A
C785        C786   1.403   1_545  A
C785        H790   1.083       .  S
C786        C787   1.419       .  A
C787        C791   1.519       .  S
C787        C788   1.401   1_565  A
C788        H792   1.084       .  S
C789        F802   1.385       .  S
C789        F803   1.383       .  S
C789        F804   1.382       .  S
C791        F799   1.383       .  S
C791        F800   1.382       .  S
C791        F801   1.385       .  S
C805        C806   1.403   1_554  A
C805        C810   1.411       .  A
C805        H815   1.083   1_554  S
C806        C811   1.497       .  S
C806        C807   1.421   1_656  A
C807        C812   1.520       .  S
C807        C808   1.414       .  A
C808        C809   1.403   1_455  A
C808        H813   1.083       .  S
C809        C810   1.419       .  A
C810        C814   1.518       .  S
C811        C816   1.420       .  A
C811        C820   1.396       .  A
C812        F828   1.382       .  S
C812        F829   1.383   1_554  S
C812        F830   1.384       .  S
C814        F825   1.384       .  S
C814        F826   1.384       .  S
C814        F827   1.383   1_554  S
C816        C821   1.517   1_655  S
C816        C817   1.417   1_655  A
C817        C818   1.407   1_455  A
C817        H822   1.083       .  S
C818        C819   1.430       .  A
C819        C823   1.524   1_556  S
C819        C820   1.406       .  A
C820        H824   1.083   1_556  S
C821        F834   1.385       .  S
C821        F835   1.382   1_455  S
C821        F836   1.382       .  S
C823        F831   1.385       .  S
C823        F832   1.383   1_554  S
C823        F833   1.383   1_655  S
C837        C838   1.400       .  A
C837        C842   1.405       .  A
C837        H847   1.083       .  S
C838        C843   1.472   1_556  S
C838        C839   1.418       .  A
C839        C844   1.523       .  S
C839        C840   1.398       .  A
C840        C841   1.398       .  A
C840        H845   1.084       .  S
C841        C842   1.415       .  A
C842        C846   1.516       .  S
C843        C848   1.417       .  A
C843        C852   1.397   1_554  A
C844        F860   1.382       .  S
C844        F861   1.383       .  S
C844        F862   1.384       .  S
C846        F857   1.382       .  S
C846        F858   1.384       .  S
C846        F859   1.382       .  S
C848        C853   1.520       .  S
C848        C849   1.403       .  A
C849        C850   1.398       .  A
C849        H854   1.083       .  S
C850        C851   1.414       .  A
C851        C855   1.518       .  S
C851        C852   1.400   1_554  A
C852        H856   1.084       .  S
C853        F866   1.385       .  S
C853        F867   1.382       .  S
C853        F868   1.383       .  S
C855        F863   1.382       .  S
C855        F864   1.383   1_554  S
C855        F865   1.385   1_554  S
C869        C870   1.401       .  A
C869        C874   1.409       .  A
C869        H879   1.083   1_554  S
C870        C875   1.494       .  S
C870        C871   1.419       .  A
C871        C876   1.518       .  S
C871        C872   1.412       .  A
C872        C873   1.403       .  A
C872        H877   1.083       .  S
C873        C874   1.423       .  A
C874        C878   1.520       .  S
C875        C880   1.420   1_554  A
C875        C884   1.400       .  A
C876        F892   1.382       .  S
C876        F893   1.383       .  S
C876        F894   1.385       .  S
C878        F889   1.383       .  S
C878        F890   1.385       .  S
C878        F891   1.383       .  S
C880        C885   1.518       .  S
C880        C881   1.412       .  A
C881        C882   1.403       .  A
C881        H886   1.083       .  S
C882        C883   1.424   1_556  A
C883        C887   1.521       .  S
C883        C884   1.410       .  A
C884        H888   1.083       .  S
C885        F898   1.384       .  S
C885        F899   1.382       .  S
C885        F900   1.383       .  S
C887        F895   1.383   1_554  S
C887        F896   1.382       .  S
C887        F897   1.385       .  S
C901        C902   1.402       .  A
C901        C906   1.409       .  A
C901        H911   1.083   1_554  S
C902        C907   1.476   1_554  S
C902        C903   1.417       .  A
C903        C908   1.522       .  S
C903        C904   1.399       .  A
C904        C905   1.398       .  A
C904        H909   1.084       .  S
C905        C906   1.416       .  A
C906        C910   1.517       .  S
C907        C912   1.416       .  A
C907        C916   1.401       .  A
C908        F924   1.382       .  S
C908        F925   1.382   1_554  S
C908        F926   1.385       .  S
C910        F921   1.383       .  S
C910        F922   1.385       .  S
C910        F923   1.383       .  S
C912        C917   1.518       .  S
C912        C913   1.403       .  A
C913        C914   1.398       .  A
C913        H918   1.084       .  S
C914        C915   1.411       .  A
C915        C919   1.516       .  S
C915        C916   1.404       .  A
C916        H920   1.083   1_556  S
C917        F930   1.385       .  S
C917        F931   1.383       .  S
C917        F932   1.382       .  S
C919        F927   1.384   1_556  S
C919        F928   1.383       .  S
C919        F929   1.382       .  S
C933        C934   1.399       .  A
C933        C938   1.405       .  A
C933        H943   1.083       .  S
C934        C939   1.470   1_554  S
C934        C935   1.410   1_554  A
C935        C940   1.521       .  S
C935        C936   1.398   1_556  A
C936        C937   1.407       .  A
C936        H941   1.082   1_554  S
C937        C938   1.421       .  A
C938        C942   1.519       .  S
C939        C944   1.411       .  A
C939        C948   1.400       .  A
C940        F956   1.382       .  S
C940        F957   1.382       .  S
C940        F958   1.385       .  S
C942        F953   1.385       .  S
C942        F954   1.383       .  S
C942        F955   1.383       .  S
C944        C949   1.522   1_556  S
C944        C945   1.397       .  A
C945        C946   1.406       .  A
C945        H950   1.082       .  S
C946        C947   1.421       .  A
C947        C951   1.519       .  S
C947        C948   1.407       .  A
C948        H952   1.083       .  S
C949        F962   1.385       .  S
C949        F963   1.382       .  S
C949        F964   1.382       .  S
C951        F959   1.385       .  S
C951        F960   1.384       .  S
C951        F961   1.383       .  S
C965        C966   1.406       .  A
C965        C970   1.417       .  A
C965        H975   1.083       .  S
C966        C971   1.496       .  S
C966        C967   1.413       .  A
C967        C972   1.521       .  S
C967        C968   1.409       .  A
C968        C969   1.413       .  A
C968        H973   1.082       .  S
C969        C970   1.423       .  A
C970        C974   1.517       .  S
C971        C976   1.415       .  A
C971        C980   1.409       .  A
C972        F988   1.382       .  S
C972        F989   1.381       .  S
C972        F990   1.385       .  S
C974        F985   1.383       .  S
C974        F986   1.385       .  S
C974        F987   1.383       .  S
C976        C981   1.522       .  S
C976        C977   1.407       .  A
C977        C978   1.409       .  A
C977        H982   1.083       .  S
C978        C979   1.416       .  A
C979        C983   1.517       .  S
C979        C980   1.418       .  A
C980        H984   1.083       .  S
C981        F994   1.385       .  S
C981        F995   1.383       .  S
C981        F996   1.380       .  S
C983        F991   1.383       .  S
C983        F992   1.381       .  S
C983        F993   1.384       .  S
C997        C998   1.405       .  A
C997       C1002   1.415       .  A
C997       H1007   1.083       .  S
C998       C1003   1.506       .  S
C998        C999   1.419       .  A
C999       C1004   1.519       .  S
C999       C1000   1.416       .  A
C1000      C1001   1.407       .  A
C1000      H1005   1.083   1_545  S
C1001      C1002   1.418       .  A
C1002      C1006   1.511       .  S
C1003      C1008   1.415       .  A
C1003      C1012   1.408       .  A
C1004      F1020   1.382       .  S
C1004      F1021   1.382       .  S
C1004      F1022   1.384       .  S
C1006      F1017   1.378       .  S
C1006      F1018   1.384       .  S
C1006      F1019   1.383       .  S
C1008      C1013   1.520       .  S
C1008      C1009   1.412       .  A
C1009      C1010   1.412       .  A
C1009      H1014   1.082       .  S
C1010      C1011   1.424       .  A
C1011      C1015   1.517       .  S
C1011      C1012   1.420       .  A
C1012      H1016   1.083       .  S
C1013      F1026   1.384       .  S
C1013      F1027   1.382       .  S
C1013      F1028   1.382       .  S
C1015      F1023   1.385       .  S
C1015      F1024   1.383       .  S
C1015      F1025   1.383       .  S
C1029      C1030   1.408       .  A
C1029      C1034   1.419       .  A
C1029      H1039   1.083       .  S
C1030      C1035   1.507       .  S
C1030      C1031   1.417       .  A
C1031      C1036   1.520       .  S
C1031      C1032   1.414       .  A
C1032      C1033   1.410       .  A
C1032      H1037   1.083       .  S
C1033      C1034   1.419       .  A
C1034      C1038   1.516       .  S
C1035      C1040   1.413       .  A
C1035      C1044   1.398       .  A
C1036      F1052   1.382       .  S
C1036      F1053   1.381       .  S
C1036      F1054   1.385       .  S
C1038      F1049   1.384       .  S
C1038      F1050   1.383       .  S
C1038      F1051   1.384       .  S
C1040      C1045   1.520       .  S
C1040      C1041   1.418       .  A
C1041      C1042   1.419       .  A
C1041      H1046   1.077       .  S
C1042      C1043   1.445       .  A
C1043      C1047   1.530   1_545  S
C1043      C1044   1.419       .  A
C1044      H1048   1.083       .  S
C1045      F1058   1.384       .  S
C1045      F1059   1.383       .  S
C1045      F1060   1.382       .  S
C1047      F1055   1.385   1_565  S
C1047      F1056   1.380       .  S
C1047      F1057   1.380       .  S
C1061      C1062   1.396       .  A
C1061      C1066   1.416       .  A
C1061      H1071   1.082       .  S
C1062      C1067   1.506       .  S
C1062      C1063   1.414       .  A
C1063      C1068   1.520       .  S
C1063      C1064   1.418       .  A
C1064      C1065   1.419       .  A
C1064      H1069   1.072       .  S
C1065      C1066   1.445       .  A
C1066      C1070   1.532       .  S
C1067      C1072   1.418       .  A
C1067      C1076   1.409       .  A
C1068      F1084   1.382   1_565  S
C1068      F1085   1.382       .  S
C1068      F1086   1.385   1_565  S
C1070      F1081   1.385       .  S
C1070      F1082   1.377       .  S
C1070      F1083   1.380       .  S
C1072      C1077   1.520       .  S
C1072      C1073   1.412       .  A
C1073      C1074   1.408       .  A
C1073      H1078   1.083       .  S
C1074      C1075   1.419       .  A
C1075      C1079   1.516       .  S
C1075      C1076   1.420       .  A
C1076      H1080   1.083       .  S
C1077      F1090   1.384       .  S
C1077      F1091   1.382       .  S
C1077      F1092   1.381       .  S
C1079      F1087   1.384       .  S
C1079      F1088   1.383       .  S
C1079      F1089   1.383       .  S
C1093      C1094   1.408       .  A
C1093      C1098   1.420       .  A
C1093      H1103   1.083       .  S
C1094      C1099   1.506       .  S
C1094      C1095   1.415       .  A
C1095      C1100   1.520       .  S
C1095      C1096   1.412       .  A
C1096      C1097   1.414       .  A
C1096      H1101   1.082       .  S
C1097      C1098   1.423       .  A
C1098      C1102   1.517       .  S
C1099      C1104   1.418       .  A
C1099      C1108   1.407       .  A
C1100      F1116   1.382       .  S
C1100      F1117   1.382       .  S
C1100      F1118   1.385       .  S
C1102      F1113   1.383       .  S
C1102      F1114   1.384       .  S
C1102      F1115   1.383       .  S
C1104      C1109   1.520       .  S
C1104      C1105   1.415       .  A
C1105      C1106   1.410       .  A
C1105      H1110   1.082       .  S
C1106      C1107   1.419       .  A
C1107      C1111   1.513       .  S
C1107      C1108   1.418       .  A
C1108      H1112   1.083       .  S
C1109      F1122   1.384       .  S
C1109      F1123   1.382       .  S
C1109      F1124   1.382       .  S
C1111      F1119   1.385       .  S
C1111      F1120   1.383       .  S
C1111      F1121   1.381       .  S
C1125      C1126   1.410   1_655  A
C1125      C1130   1.423       .  A
C1125      H1135   1.083       .  S
C1126      C1131   1.513       .  S
C1126      C1127   1.417       .  A
C1127      C1132   1.520       .  S
C1127      C1128   1.415       .  A
C1128      C1129   1.411   1_455  A
C1128      H1133   1.083       .  S
C1129      C1130   1.422       .  A
C1130      C1134   1.515       .  S
C1131      C1136   1.414   1_455  A
C1131      C1140   1.400       .  A
C1132      F1148   1.382       .  S
C1132      F1149   1.382       .  S
C1132      F1150   1.384       .  S
C1134      F1145   1.383       .  S
C1134      F1146   1.385       .  S
C1134      F1147   1.383       .  S
C1136      C1141   1.520       .  S
C1136      C1137   1.417       .  A
C1137      C1138   1.419   1_655  A
C1137      H1142   1.074       .  S
C1138      C1139   1.444       .  A
C1139      C1143   1.529       .  S
C1139      C1140   1.422       .  A
C1140      H1144   1.082       .  S
C1141      F1154   1.384       .  S
C1141      F1155   1.382       .  S
C1141      F1156   1.382       .  S
C1143      F1151   1.380       .  S
C1143      F1152   1.380       .  S
C1143      F1153   1.385       .  S
C1157      C1158   1.406   1_655  A
C1157      C1162   1.414       .  A
C1157      H1167   1.083       .  S
C1158      C1163   1.499       .  S
C1158      C1159   1.418       .  A
C1159      C1164   1.521       .  S
C1159      C1160   1.412       .  A
C1160      C1161   1.407       .  A
C1160      H1165   1.083       .  S
C1161      C1162   1.415   1_455  A
C1162      C1166   1.516       .  S
C1163      C1168   1.411       .  A
C1163      C1172   1.408       .  A
C1164      F1180   1.382       .  S
C1164      F1181   1.382       .  S
C1164      F1182   1.385       .  S
C1166      F1177   1.384       .  S
C1166      F1178   1.383       .  S
C1166      F1179   1.383       .  S
C1168      C1173   1.521       .  S
C1168      C1169   1.407       .  A
C1169      C1170   1.414       .  A
C1169      H1174   1.082       .  S
C1170      C1171   1.423       .  A
C1171      C1175   1.517   1_455  S
C1171      C1172   1.419       .  A
C1172      H1176   1.083   1_455  S
C1173      F1186   1.385       .  S
C1173      F1187   1.382   1_455  S
C1173      F1188   1.381       .  S
C1175      F1183   1.385       .  S
C1175      F1184   1.383       .  S
C1175      F1185   1.383   1_655  S
