geometry optimzed in LAMMPS
_audit_creation_date              2020-11-30 
_audit_creation_method            'lammps2cif' 
_symmetry_space_group_name_H-M    'P1' 
_symmetry_Int_Tables_number       1 
_symmetry_cell_setting            triclinic 
loop_ 
_symmetry_equiv_pos_as_xyz 
  x,y,z 
_cell_length_a                    37.9811870981964 
_cell_length_b                    37.9915326359917 
_cell_length_c                    38.00118850169168 
_cell_angle_alpha                 89.8500950571717 
_cell_angle_beta                  89.93284157222365 
_cell_angle_gamma                 90.02339758641541 
loop_ 
_atom_site_label 
_atom_site_type_symbol 
_atom_site_fract_x 
_atom_site_fract_y 
_atom_site_fract_z 
_atom_site_charge 
O1          O  0.50688036  0.47354103  0.56177177    -0.88440
C2          C  0.51397388  0.42842470  0.46513310     0.87590
Mg3        Mg  0.46107992  0.50108366  0.57910927     1.58150
O4          O  0.56132104  0.50707772  0.47367469    -0.88170
O5          O  0.56298940  0.48475375  0.55375817    -0.75500
C6          C  0.41762509  0.60416093  0.44391065     0.92640
O7          O  0.44584771  0.43806980  0.51525988    -0.75320
O8          O  0.40310933  0.58743337  0.46913083    -0.82830
Mg9        Mg  0.49889987  0.42225005  0.53922382     1.57960
C10         C  0.55708154  0.58350096  0.39740443     0.92560
O11         O  0.54965911  0.40037840  0.56402083    -0.81090
H12         H  0.59813383  0.53549868  0.49819512    -0.06430
C13         C  0.46500217  0.51547371  0.42842550     0.87500
O14         O  0.48565335  0.55406712  0.56349955    -0.75600
O15         O  0.52604033  0.43934474  0.49327108    -0.88360
O16         O  0.56412518  0.55090017  0.40100924    -0.81170
C17         C  0.60171616  0.44312583  0.41668133     0.92670
C18         C  0.58223554  0.39678785  0.55666297     0.92530
Mg19       Mg  0.50107283  0.57897629  0.46149943     1.57950
O20         O  0.45031514  0.60097239  0.43693921    -0.81090
O21         O  0.55414956  0.56303692  0.48559077    -0.75330
O22         O  0.59804625  0.43516431  0.44911678    -0.81170
O23         O  0.46799837  0.40311599  0.58609673    -0.82890
O24         O  0.40029404  0.56460023  0.55099157    -0.81200
C25         C  0.57249893  0.53508782  0.48586547     0.86960
O26         O  0.47367366  0.56198518  0.50760122    -0.88350
O27         O  0.49319842  0.52745964  0.43937665    -0.88450
O28         O  0.43721005  0.51578312  0.44702658    -0.75510
Mg29       Mg  0.57786310  0.46054518  0.50044842     1.57970
O30         O  0.58651178  0.46977879  0.40320694    -0.82880
H31         H  0.53621805  0.49763278  0.59812356    -0.06610
O32         O  0.43866481  0.49393792  0.52750899    -0.88150
H33         H  0.40169532  0.46554821  0.50320616    -0.06430
H34         H  0.49845203  0.59831847  0.53637083    -0.06610
C35         C  0.42742272  0.46594903  0.51534230     0.86940
C36         C  0.53526359  0.48534952  0.57250563     0.87530
C37         C  0.48594155  0.57275630  0.53572932     0.87570
H38         H  0.46430904  0.50320589  0.40279148    -0.06590
O39         O  0.51455430  0.44699630  0.43730592    -0.75620
Mg40       Mg  0.42188448  0.54000017  0.50009562     1.58000
H41         H  0.50152200  0.40283277  0.46448869    -0.06610
C42         C  0.44261908  0.41724239  0.60270672     0.92560
O43         O  0.41413840  0.53236355  0.59814122    -0.82840
C44         C  0.39748088  0.55764436  0.58373610     0.92620
O45         O  0.59640387  0.41282575  0.53084267    -0.82830
Mg46       Mg  0.53911517  0.50015409  0.42224525     1.58180
O47         O  0.43571276  0.45003735  0.60061994    -0.81160
O48         O  0.53171241  0.59790629  0.41388455    -0.82860
O49         O  0.99245634  0.47362147  0.43893614    -0.88440
C50         C  0.98469955  0.42716497  0.53528000     0.87590
Mg51       Mg  0.03881557  0.50089607  0.42213698     1.58150
O52         O  0.93773383  0.50613411  0.52697782    -0.88170
O53         O  0.93632025  0.48460854  0.44683523    -0.75500
C54         C  0.08175829  0.60220859  0.55820735     0.92640
O55         O  0.05308213  0.43669208  0.48474490    -0.75320
O56         O  0.09620472  0.58632698  0.53248173    -0.82830
Mg57       Mg  0.99979356  0.42172311  0.46044019     1.57960
C58         C  0.94190688  0.58219467  0.60345092     0.92560
O59         O  0.94842871  0.40096665  0.43498221    -0.81090
H60         H  0.90127344  0.53495406  0.50227201    -0.06430
C61         C  0.03374186  0.51334483  0.57280168     0.87500
O62         O  0.01468285  0.55398304  0.43772548    -0.75600
O63         O  0.97300474  0.43835149  0.50701663    -0.88360
O64         O  0.93431851  0.54969471  0.59980538    -0.81170
C65         C  0.89619012  0.44206044  0.58316877     0.92670
C66         C  0.91609466  0.39698041  0.44328886     0.92530
Mg67       Mg  0.99840265  0.57730892  0.53990679     1.57950
O68         O  0.04914084  0.59834508  0.56516178    -0.81090
O69         O  0.94534050  0.56214232  0.51530596    -0.75330
O70         O  0.90103305  0.43369754  0.55107501    -0.81170
O71         O  0.03026504  0.40328609  0.41274831    -0.82890
O72         O  0.09936266  0.56406480  0.45062387    -0.81200
C73         C  0.92681474  0.53429889  0.51478613     0.86960
O74         O  0.02585723  0.56071132  0.49384703    -0.88350
O75         O  0.00559615  0.52557255  0.56191026    -0.88450
O76         O  0.06165987  0.51406298  0.55435190    -0.75510
Mg77       Mg  0.92135288  0.45975084  0.50004647     1.57970
O78         O  0.91070121  0.46878203  0.59707763    -0.82880
H79         H  0.96328136  0.49831373  0.40273490    -0.06610
O80         O  0.06072519  0.49286637  0.47378026    -0.88150
H81         H  0.09728028  0.46363373  0.49785288    -0.06430
H82         H  0.00191431  0.59786157  0.46523653    -0.06610
C83         C  0.07165558  0.46450829  0.48552308     0.86940
C84         C  0.96413884  0.48562948  0.42822314     0.87530
C85         C  0.01411348  0.57215217  0.46572294     0.87570
H86         H  0.03432542  0.50063923  0.59828731    -0.06590
O87         O  0.98342462  0.44534283  0.56329261    -0.75620
Mg88       Mg  0.07751074  0.53883720  0.50143496     1.58000
H89         H  0.99718948  0.40159887  0.53597303    -0.06610
C90         C  0.05602031  0.41745171  0.39659456     0.92560
O91         O  0.08663950  0.53160559  0.40363082    -0.82840
C92         C  0.10307584  0.55700843  0.41801582     0.92620
O93         O  0.90283983  0.41221175  0.46995704    -0.82830
Mg94       Mg  0.95907734  0.49864695  0.57864242     1.58180
O95         O  0.06351772  0.44998581  0.40027258    -0.81160
O96         O  0.96777627  0.59613391  0.58732218    -0.82860
O97         O  0.47414290  0.43857643  0.99334467    -0.88440
C98         C  0.42797143  0.53477220  0.98636543     0.87590
Mg99       Mg  0.50086430  0.42170203  0.03988689     1.58150
O100        O  0.50738219  0.52794912  0.93985513    -0.88170
O101        O  0.48671375  0.44742990  0.93770426    -0.75500
C102        C  0.60355763  0.55637779  0.08341054     0.92640
O103        O  0.43699076  0.48416166  0.05369249    -0.75320
O104        O  0.58669691  0.53115994  0.09771731    -0.82830
Mg105      Mg  0.42212289  0.46011839  0.00021516     1.57960
C106        C  0.58290530  0.60462888  0.94453569     0.92560
O107        O  0.40167825  0.43520145  0.94836329    -0.81090
H108        H  0.53607144  0.50478503  0.90236650    -0.06430
C109        C  0.51477554  0.57247299  0.03641256     0.87500
O110        O  0.55435547  0.43733580  0.01601124    -0.75600
O111        O  0.43902714  0.50687583  0.97372680    -0.88360
O112        O  0.55021277  0.60120509  0.93759961    -0.81170
C113        C  0.44342880  0.58407662  0.89827591     0.92670
C114        C  0.39933199  0.44329034  0.91579204     0.92530
Mg115      Mg  0.57862917  0.53994250  0.99993119     1.57950
O116        O  0.60058916  0.56372098  0.05081337    -0.81090
O117        O  0.56345226  0.51658076  0.94657746    -0.75330
O118        O  0.43680653  0.55125548  0.90091180    -0.81170
O119        O  0.40316464  0.41228851  0.03061652    -0.82890
O120        O  0.56569033  0.44899689  0.09814079    -0.81200
C121        C  0.53553245  0.51646561  0.92828122     0.86960
O122        O  0.56141612  0.49355257  0.02671001    -0.88350
O123        O  0.52694503  0.56190751  0.00813052    -0.88450
O124        O  0.51494617  0.55349423  0.06398772    -0.75510
Mg125      Mg  0.46195246  0.50045247  0.92243097     1.57970
O126        O  0.46839267  0.59848856  0.91529281    -0.82880
H127        H  0.49976776  0.40298004  0.96435549    -0.06610
O128        O  0.49314486  0.47320099  0.06147704    -0.88150
H129        H  0.46381493  0.49724210  0.09793533    -0.06430
H130        H  0.59832093  0.46472432  0.00273218    -0.06610
C131        C  0.46476622  0.48496005  0.07231618     0.86940
C132        C  0.48693994  0.42837006  0.96522344     0.87530
C133        C  0.57263586  0.46534852  0.01501428     0.87570
H134        H  0.50241304  0.59808760  0.03734452    -0.06590
O135        O  0.44644150  0.56268449  0.98648536    -0.75620
Mg136      Mg  0.53952691  0.50027299  0.07847320     1.58000
H137        H  0.40242590  0.53506943  0.99878098    -0.06610
C138        C  0.41733825  0.39614929  0.05637194     0.92560
O139        O  0.53032365  0.40316130  0.08838712    -0.82840
C140        C  0.55736072  0.41677151  0.10265664     0.92620
O141        O  0.41540571  0.46969886  0.90287179    -0.82830
Mg142      Mg  0.49940049  0.57915025  0.96237709     1.58180
O143        O  0.44979019  0.39997022  0.06398620    -0.81160
O144        O  0.59729142  0.58799920  0.96984208    -0.82860
O145        O  0.47740067  0.00085063  0.43630413    -0.88440
C146        C  0.42412851  0.01169928  0.52866036     0.87590
Mg147      Mg  0.50892327  0.95589885  0.42488648     1.58150
O148        O  0.49930239  0.06471909  0.52153689    -0.88170
O149        O  0.48319239  0.05817466  0.44027785    -0.75500
C150        C  0.60412472  0.93104723  0.56940252     0.92640
O151        O  0.44255620  0.94090023  0.48489400    -0.75320
O152        O  0.59173206  0.91477271  0.54297846    -0.82830
Mg153      Mg  0.42527075  0.99066535  0.45521850     1.57960
C154        C  0.56996834  0.07175839  0.60317802     0.92560
O155        O  0.40287009  0.03755289  0.42369294    -0.81090
H156        H  0.52725979  0.10126955  0.49583931    -0.06430
C157        C  0.51064432  0.97265762  0.57478856     0.87500
O158        O  0.55875904  0.98584879  0.44165456    -0.75600
O159        O  0.43651265  0.02204816  0.50034499    -0.88360
O160        O  0.53759800  0.07770421  0.59637175    -0.81170
C161        C  0.42751608  0.10390746  0.57000988     0.92670
C162        C  0.39483397  0.06955384  0.42959411     0.92530
Mg163      Mg  0.57373765  0.01063106  0.54419589     1.57950
O164        O  0.59662585  0.96324021  0.57535581    -0.81090
O165        O  0.55645938  0.06057349  0.51449270    -0.75330
O166        O  0.42229600  0.09583357  0.53789382    -0.81170
O167        O  0.41247012  0.95553621  0.40946853    -0.82890
O168        O  0.57615009  0.90429064  0.46094188    -0.81200
C169        C  0.52746527  0.07677731  0.51039607     0.86960
O170        O  0.56281416  0.97933350  0.49883098    -0.88350
O171        O  0.52134053  0.00110409  0.56294775    -0.88450
O172        O  0.51535537  0.94381726  0.55851190    -0.75510
Mg173      Mg  0.45353910  0.07469518  0.49043512     1.57970
O174        O  0.45469933  0.09355056  0.58667513    -0.82880
H175        H  0.50213548  0.02937907  0.39952042    -0.06610
O176        O  0.49965346  0.93722029  0.47737009    -0.88150
H177        H  0.47215386  0.90025572  0.50295451    -0.06430
H178        H  0.59937190  0.00478088  0.47066549    -0.06610
C179        C  0.47165907  0.92484360  0.48856780     0.86940
C180        C  0.48780085  0.02926432  0.42412108     0.87530
C181        C  0.57490764  0.99021708  0.47058910     0.87570
H182        H  0.49603384  0.97243739  0.59922627    -0.06590
O183        O  0.43994330  0.01675528  0.55767518    -0.75620
Mg184      Mg  0.54510817  0.92672236  0.50849300     1.58000
H185        H  0.39963647  0.99718050  0.52863256    -0.06610
C186        C  0.42893327  0.92945460  0.39656390     0.92560
O187        O  0.54403894  0.90999185  0.41235575    -0.82840
C188        C  0.57050505  0.89744890  0.42855677     0.92620
O189        O  0.40631684  0.08609262  0.45626849    -0.82830
Mg190      Mg  0.48994563  0.04671375  0.57422750     1.58180
O191        O  0.46164323  0.92459872  0.40248894    -0.81160
O192        O  0.58608919  0.04539390  0.59038155    -0.82860
O193        O  0.02712631  0.43885627  0.00560820    -0.88440
C194        C  0.07250647  0.53539396  0.01468099     0.87590
Mg195      Mg  0.00043469  0.42241791  0.95892062     1.58150
O196        O  0.99325774  0.52652435  0.06133401    -0.88170
O197        O  0.01475521  0.44612624  0.06153009    -0.75500
C198        C  0.89661099  0.55780158  0.91817623     0.92640
O199        O  0.06327924  0.48638526  0.94573144    -0.75320
O200        O  0.91276064  0.53238304  0.90347970    -0.82830
Mg201      Mg  0.07855560  0.46151006  0.99871849     1.57960
C202        C  0.91734199  0.60272220  0.05738187     0.92560
O203        O  0.10018202  0.43622480  0.04930750    -0.81090
H204        H  0.96476385  0.50170740  0.09804072    -0.06430
C205        C  0.98544049  0.57303622  0.96543970     0.87500
O206        O  0.94702286  0.43699144  0.98335437    -0.75600
O207        O  0.06129573  0.50710104  0.02629907    -0.88360
O208        O  0.95008182  0.60001975  0.06420641    -0.81170
C209        C  0.05701518  0.58219946  0.10349251     0.92670
C210        C  0.10291418  0.44279849  0.08206803     0.92530
Mg211      Mg  0.92212459  0.53890220  0.00112906     1.57950
O212        O  0.90055916  0.56451049  0.95077718    -0.81090
O213        O  0.93745196  0.51411331  0.05390298    -0.75330
O214        O  0.06422350  0.54962630  0.09960815    -0.81170
O215        O  0.09762768  0.41450913  0.96821983    -0.82890
O216        O  0.93630492  0.45091945  0.89965382    -0.81200
C217        C  0.96523978  0.51414460  0.07242040     0.86960
O218        O  0.93939618  0.49329159  0.97322114    -0.88350
O219        O  0.97362046  0.56162567  0.99358752    -0.88450
O220        O  0.98490060  0.55487641  0.93742171    -0.75510
Mg221      Mg  0.03913103  0.49896339  0.07779048     1.57970
O222        O  0.03135281  0.59657796  0.08744362    -0.82880
H223        H  0.00205471  0.40223851  0.03401885    -0.06610
O224        O  0.00740003  0.47454695  0.93772046    -0.88150
H225        H  0.03632388  0.49977541  0.90161932    -0.06430
H226        H  0.90280700  0.46369760  0.99692533    -0.06610
C227        C  0.03556098  0.48699200  0.92706312     0.86940
C228        C  0.01461058  0.42778628  0.03360847     0.87530
C229        C  0.92845402  0.46477496  0.98458979     0.87570
H230        H  0.99767394  0.59873880  0.96494293    -0.06590
O231        O  0.05408955  0.56326320  0.01539150    -0.75620
Mg232      Mg  0.96088225  0.50179050  0.92151559     1.58000
H233        H  0.09821947  0.53614515  0.00246067    -0.06610
C234        C  0.08450528  0.39830077  0.94207827     0.92560
O235        O  0.96995401  0.40425595  0.91101954    -0.82840
C236        C  0.94393640  0.41850918  0.89537493     0.92620
O237        O  0.08615000  0.46784281  0.09659245    -0.82830
Mg238      Mg  0.00089735  0.57834848  0.03965901     1.58180
O239        O  0.05209608  0.40163063  0.93376795    -0.81160
O240        O  0.90286893  0.58564511  0.03251759    -0.82860
O241        O  0.00727007  0.02631234  0.43851598    -0.88440
C242        C  0.01453284  0.07099842  0.53539092     0.87590
Mg243      Mg  0.96115547  0.99920274  0.42093276     1.58150
O244        O  0.06193524  0.99236767  0.52660989    -0.88170
O245        O  0.06339710  0.01514075  0.44649469    -0.75500
C246        C  0.91764527  0.89515059  0.55540981     0.92640
O247        O  0.94654773  0.06151632  0.48568260    -0.75320
O248        O  0.90357486  0.91117601  0.52955536    -0.82830
Mg249      Mg  0.99958794  0.07745012  0.46155166     1.57960
C250        C  0.05670230  0.91546817  0.60249648     0.92560
O251        O  0.05032557  0.09929434  0.43670480    -0.81090
H252        H  0.09865578  0.96388036  0.50197601    -0.06430
C253        C  0.96490226  0.98345567  0.57142504     0.87500
O254        O  0.98558282  0.94591767  0.43595718    -0.75600
O255        O  0.02688181  0.06020592  0.50730950    -0.88360
O256        O  0.06385234  0.94813155  0.59926671    -0.81170
C257        C  0.10187621  0.05579372  0.58416522     0.92670
C258        C  0.08289757  0.10317700  0.44388180     0.92530
Mg259      Mg  0.00116910  0.92054292  0.53811828     1.57950
O260        O  0.95018435  0.89895156  0.56275678    -0.81090
O261        O  0.05443868  0.93650120  0.51429049    -0.75330
O262        O  0.09977449  0.06354098  0.55151906    -0.81170
O263        O  0.96863596  0.09711200  0.41496365    -0.82890
O264        O  0.90157974  0.93490448  0.44832184    -0.81200
C265        C  0.07296779  0.96435850  0.51425727     0.86960
O266        O  0.97417795  0.93780713  0.49195546    -0.88350
O267        O  0.99319416  0.97183813  0.56027769    -0.88450
O268        O  0.93710689  0.98303525  0.55289158    -0.75510
Mg269      Mg  0.07876715  0.03897955  0.49989685     1.57970
O270        O  0.08536705  0.02985506  0.59753674    -0.82880
H271        H  0.03666822  0.00221311  0.40216530    -0.06610
O272        O  0.93896799  0.00585259  0.47270807    -0.88150
H273        H  0.90230332  0.03408088  0.49770783    -0.06430
H274        H  0.99875431  0.90160553  0.46279865    -0.06610
C275        C  0.92796158  0.03372444  0.48536038     0.86940
C276        C  0.03567100  0.01448942  0.42778707     0.87530
C277        C  0.98625219  0.92715561  0.46367881     0.87570
H278        H  0.96409844  0.99542777  0.59719770    -0.06590
O279        O  0.01445671  0.05217172  0.56302974    -0.75620
Mg280      Mg  0.92233388  0.95926452  0.49947238     1.58000
H281        H  0.00223029  0.09665147  0.53607443    -0.06610
C282        C  0.94328673  0.08334824  0.39803994     0.92560
O283        O  0.91358543  0.96859920  0.40183976    -0.82840
C284        C  0.89773752  0.94253879  0.41584736     0.92620
O285        O  0.09723354  0.08709830  0.46958194    -0.82830
Mg286      Mg  0.03883056  0.99903936  0.57791363     1.58180
O287        O  0.93616150  0.05057374  0.39979014    -0.81160
O288        O  0.03138875  0.90134422  0.58577127    -0.82860
O289        O  0.43917538  0.00759606  0.02658193    -0.88440
C290        C  0.53532162  0.01412232  0.07259292     0.87590
Mg291      Mg  0.42205908  0.96134305  0.99917757     1.58150
O292        O  0.52715713  0.06200525  0.99398812    -0.88170
O293        O  0.44707338  0.06386572  0.01618308    -0.75500
C294        C  0.55684739  0.91862185  0.89582987     0.92640
O295        O  0.48481010  0.94651709  0.06262830    -0.75320
O296        O  0.53140153  0.90410857  0.91223260    -0.82830
Mg297      Mg  0.46070411  0.99973347  0.07833714     1.57960
C298        C  0.60338698  0.05755721  0.91756155     0.92560
O299        O  0.43608738  0.05083964  0.10002891    -0.81090
H300        H  0.50236292  0.09867425  0.96548734    -0.06430
C301        C  0.57245656  0.96525874  0.98480788     0.87500
O302        O  0.43720263  0.98591550  0.94606372    -0.75600
O303        O  0.50727442  0.02681329  0.06201048    -0.88360
O304        O  0.59999139  0.06434391  0.95021722    -0.81170
C305        C  0.58489964  0.10217883  0.05738383     0.92670
C306        C  0.44376637  0.08330222  0.10406317     0.92530
Mg307      Mg  0.53920554  0.00179156  0.92178921     1.57950
O308        O  0.56396794  0.95118936  0.89966833    -0.81090
O309        O  0.51506962  0.05473783  0.93804346    -0.75330
O310        O  0.55233421  0.09978231  0.06559636    -0.81170
O311        O  0.41263174  0.96941376  0.09670206    -0.82890
O312        O  0.44993621  0.90152073  0.93536371    -0.81200
C313        C  0.51482015  0.07308858  0.96595307     0.86960
O314        O  0.49321138  0.97437510  0.93850652    -0.88350
O315        O  0.56109579  0.99350196  0.97326631    -0.88450
O316        O  0.55409498  0.93734317  0.98427525    -0.75510
Mg317      Mg  0.50047354  0.07884169  0.04056091     1.57970
O318        O  0.59775728  0.08568737  0.03130142    -0.82880
H319        H  0.40291310  0.03714610  0.00244016    -0.06610
O320        O  0.47371888  0.93927521  0.00649127    -0.88150
H321        H  0.49795871  0.90254900  0.03540798    -0.06430
H322        H  0.46438140  0.99883619  0.90189247    -0.06610
C323        C  0.48558190  0.92816930  0.03471752     0.86940
C324        C  0.42844835  0.03607876  0.01493930     0.87530
C325        C  0.46503600  0.98641487  0.92751502     0.87570
H326        H  0.59822806  0.96460869  0.99684272    -0.06590
O327        O  0.56298664  0.01428659  0.05378115    -0.75620
Mg328      Mg  0.50086036  0.92255012  0.96013977     1.58000
H329        H  0.53598389  0.00141460  0.09807473    -0.06610
C330        C  0.39681084  0.94349370  0.08262212     0.92560
O331        O  0.40309262  0.91369102  0.96832695    -0.82840
C332        C  0.41737658  0.89766463  0.94258170     0.92620
O333        O  0.46988184  0.09737591  0.08835467    -0.82830
Mg334      Mg  0.57837368  0.03902814  0.00078252     1.58180
O335        O  0.40087832  0.93604406  0.05014367    -0.81160
O336        O  0.58671127  0.03243375  0.90306012    -0.82860
O337        O  0.06082086  0.00572508  0.97275008    -0.88440
C338        C  0.96394462  0.01420614  0.92793333     0.87590
Mg339      Mg  0.07773770  0.95974985  0.00021861     1.58150
O340        O  0.97287006  0.06047489  0.00706883    -0.88170
O341        O  0.05325321  0.06151304  0.98517167    -0.75500
C342        C  0.94214488  0.91611124  0.10227553     0.92640
O343        O  0.01392163  0.94545453  0.93655949    -0.75320
O344        O  0.96669551  0.90140739  0.08488691    -0.82830
Mg345      Mg  0.03828691  0.99848936  0.92111223     1.57960
C346        C  0.89793044  0.05667702  0.08416963     0.92560
O347        O  0.06355591  0.04954002  0.89957314    -0.81090
H348        H  0.99788117  0.09683290  0.03559268    -0.06430
C349        C  0.92682401  0.96477018  0.01419130     0.87500
O350        O  0.06223866  0.98364806  0.05328372    -0.75600
O351        O  0.99236645  0.02598967  0.93860150    -0.88360
O352        O  0.89990618  0.06413361  0.05144218    -0.81170
C353        C  0.91708011  0.10323127  0.94362719     0.92670
C354        C  0.05662692  0.08232814  0.89753823     0.92530
Mg355      Mg  0.96084355  0.99959513  0.07817797     1.57950
O356        O  0.93584328  0.94899698  0.10018774    -0.81090
O357        O  0.98546851  0.05249768  0.06273920    -0.75330
O358        O  0.94962668  0.09931279  0.93636813    -0.81170
O359        O  0.08526048  0.96711492  0.90199732    -0.82890
O360        O  0.04903671  0.89830857  0.06300472    -0.81200
C361        C  0.98539573  0.07125574  0.03505194     0.86960
O362        O  0.00624432  0.97189457  0.06063979    -0.88350
O363        O  0.93759531  0.99271834  0.02691924    -0.88450
O364        O  0.94549698  0.93702892  0.01390486    -0.75510
Mg365      Mg  0.00025039  0.07732445  0.96111410     1.57970
O366        O  0.90257109  0.08707087  0.96923883    -0.82880
H367        H  0.09752857  0.03426127  0.99726485    -0.06610
O368        O  0.02608978  0.93761841  0.99240376    -0.88150
H369        H  0.00162828  0.90105882  0.96366058    -0.06430
H370        H  0.03502074  0.99575883  0.09755637    -0.06610
C371        C  0.01391522  0.92672939  0.96428833     0.86940
C372        C  0.07184705  0.03374687  0.98503691     0.87530
C373        C  0.03441181  0.98372945  0.07180704     0.87570
H374        H  0.90127395  0.96431331  0.00168926    -0.06590
O375        O  0.93619602  0.01500677  0.94665653    -0.75620
Mg376      Mg  0.99829653  0.92057306  0.03811479     1.58000
H377        H  0.96295124  0.00181552  0.90236867    -0.06610
C378        C  0.10239755  0.94232030  0.91670033     0.92560
O379        O  0.09636439  0.91225224  0.03113398    -0.82840
C380        C  0.08181886  0.89531423  0.05620933     0.92620
O381        O  0.03127607  0.09641469  0.91423221    -0.82830
Mg382      Mg  0.92090726  0.03920248  0.99993309     1.58180
O383        O  0.09978407  0.93557699  0.94947932    -0.81160
O384        O  0.91450165  0.03088385  0.09769712    -0.82860
O385        O  0.72297703  0.74398235  0.31104529    -0.88440
C386        C  0.67742364  0.73512019  0.21448281     0.87590
Mg387      Mg  0.75053176  0.78986772  0.32780601     1.58150
O388        O  0.75627433  0.68815727  0.22375925    -0.88170
O389        O  0.73434365  0.68784397  0.30408993    -0.75500
C390        C  0.85367036  0.83117441  0.19203511     0.92640
O391        O  0.68802872  0.80426654  0.26306782    -0.75320
O392        O  0.83877462  0.84525968  0.21849103    -0.82830
Mg393      Mg  0.67187009  0.75167274  0.28801143     1.57960
C394        C  0.83187842  0.69134015  0.14685413     0.92560
O395        O  0.64963230  0.70155430  0.31372609    -0.81090
H396        H  0.78493204  0.65135308  0.24818028    -0.06430
C397        C  0.76452843  0.78416332  0.17723009     0.87500
O398        O  0.80345794  0.76471951  0.31248762    -0.75600
O399        O  0.68884518  0.72373688  0.24275147    -0.88360
O400        O  0.79939764  0.68409015  0.15114031    -0.81170
C401        C  0.69204023  0.64625697  0.16826492     0.92670
C402        C  0.64587445  0.66890140  0.30708812     0.92530
Mg403      Mg  0.82778195  0.74818191  0.20990550     1.57950
O404        O  0.84875070  0.79895481  0.18406572    -0.81090
O405        O  0.81246141  0.69516986  0.23475121    -0.75330
O406        O  0.68482469  0.65061440  0.20072575    -0.81170
O407        O  0.65277754  0.78308042  0.33411569    -0.82890
O408        O  0.81520389  0.84888007  0.29945496    -0.81200
C409        C  0.78442920  0.67693166  0.23564345     0.86960
O410        O  0.81131561  0.77556162  0.25630982    -0.88350
O411        O  0.77607697  0.75580635  0.18835926    -0.88450
O412        O  0.76589627  0.81214162  0.19545142    -0.75510
Mg413      Mg  0.71003113  0.67207757  0.25120014     1.57970
O414        O  0.71806932  0.66168647  0.15375466    -0.82880
H415        H  0.74712694  0.71527837  0.34797286    -0.06610
O416        O  0.74378183  0.81170751  0.27582656    -0.88150
H417        H  0.71566626  0.84819484  0.25036091    -0.06430
H418        H  0.84737217  0.75067845  0.28548568    -0.06610
C419        C  0.71592313  0.82270188  0.26307732     0.86940
C420        C  0.73483088  0.71581102  0.32233200     0.87530
C421        C  0.82199383  0.76353601  0.28463929     0.87570
H422        H  0.75202253  0.78495731  0.15169694    -0.06590
O423        O  0.69565086  0.73418512  0.18648701    -0.75620
Mg424      Mg  0.79038944  0.82752181  0.24860668     1.58000
H425        H  0.65171926  0.74732767  0.21385897    -0.06610
C426        C  0.66651747  0.80852655  0.35086604     0.92560
O427        O  0.78188211  0.83691875  0.34631164    -0.82840
C428        C  0.80783219  0.85263119  0.33198714     0.92620
O429        O  0.66225621  0.65415525  0.28189143    -0.82830
Mg430      Mg  0.74872956  0.70952815  0.17187477     1.58180
O431        O  0.69934128  0.81561105  0.34905342    -0.81160
O432        O  0.84620222  0.71742607  0.16219985    -0.82860
O433        O  0.74324169  0.31170085  0.72409242    -0.88440
C434        C  0.73664322  0.21618350  0.67751072     0.87590
Mg435      Mg  0.78983553  0.32822261  0.75123119     1.58150
O436        O  0.68879368  0.22356167  0.75618368    -0.88170
O437        O  0.68702132  0.30387672  0.73475916    -0.75500
C438        C  0.83208574  0.19283195  0.85386022     0.92640
O439        O  0.80407372  0.26653898  0.68742328    -0.75320
O440        O  0.84670423  0.21841021  0.83775350    -0.82830
Mg441      Mg  0.75067265  0.29087469  0.67220651     1.57960
C442        C  0.69294981  0.14681482  0.83183548     0.92560
O443        O  0.69941782  0.31558457  0.65118231    -0.81090
H444        H  0.65202740  0.24800473  0.78477603    -0.06430
C445        C  0.78534696  0.17795528  0.76515224     0.87500
O446        O  0.76523555  0.31311976  0.80436761    -0.75600
O447        O  0.72381617  0.24407523  0.68827262    -0.88360
O448        O  0.68625276  0.15048414  0.79917412    -0.81170
C449        C  0.64878165  0.16665872  0.69212749     0.92670
C450        C  0.66702760  0.30767552  0.64700744     0.92530
Mg451      Mg  0.74894416  0.21091706  0.82817007     1.57950
O452        O  0.79949076  0.18588366  0.84992863    -0.81090
O453        O  0.69600953  0.23523746  0.81220221    -0.75330
O454        O  0.65074493  0.19940348  0.68474837    -0.81170
O455        O  0.78051726  0.33946674  0.65420752    -0.82890
O456        O  0.84985249  0.29992455  0.81490059    -0.81200
C457        C  0.67765039  0.23562310  0.78427913     0.86960
O458        O  0.77652023  0.25701392  0.81176539    -0.88350
O459        O  0.75716220  0.18946119  0.77662249    -0.88450
O460        O  0.81335371  0.19615894  0.76574332    -0.75510
Mg461      Mg  0.67186123  0.25072277  0.71002674     1.57970
O462        O  0.66554321  0.15306925  0.71770719    -0.82880
H463        H  0.71397502  0.34782834  0.74869142    -0.06610
O464        O  0.81140095  0.27652298  0.74375157    -0.88150
H465        H  0.84800606  0.25262999  0.71445741    -0.06430
H466        H  0.75222223  0.28580097  0.84845246    -0.06610
C467        C  0.82242502  0.26507698  0.71535093     0.86940
C468        C  0.71487594  0.32240502  0.73599063     0.87530
C469        C  0.76461348  0.28519928  0.82283017     0.87570
H470        H  0.78586137  0.15220155  0.75310970    -0.06590
O471        O  0.73664740  0.18836817  0.69612607    -0.75620
Mg472      Mg  0.82831366  0.24921512  0.78999814     1.58000
H473        H  0.74938057  0.21581231  0.65205344    -0.06610
C474        C  0.80736641  0.35374047  0.66815673     0.92560
O475        O  0.83759518  0.34671645  0.78181704    -0.82840
C476        C  0.85378904  0.33242943  0.80746061     0.92620
O477        O  0.65317293  0.28137165  0.66253138    -0.82830
Mg478      Mg  0.71180405  0.17240646  0.74886248     1.58180
O479        O  0.81573439  0.34876630  0.70025048    -0.81160
O480        O  0.71819635  0.16323581  0.84645952    -0.82860
O481        O  0.22292294  0.75573655  0.68908543    -0.88440
C482        C  0.17716703  0.76310617  0.78555263     0.87590
Mg483      Mg  0.25069708  0.70990616  0.67251426     1.58150
O484        O  0.25572828  0.81092833  0.77708462    -0.88170
O485        O  0.23415590  0.81181840  0.69662987    -0.75500
C486        C  0.35385936  0.66839319  0.80789117     0.92640
O487        O  0.18732739  0.69465304  0.73582072    -0.75320
O488        O  0.33798246  0.65415915  0.78210959    -0.82830
Mg489      Mg  0.17136621  0.74756369  0.71131757     1.57960
C490        C  0.33161297  0.80780283  0.85400652     0.92560
O491        O  0.14934970  0.79822301  0.68615909    -0.81090
H492        H  0.28398325  0.84817468  0.75278231    -0.06590
C493        C  0.26446013  0.71502498  0.82324805     0.87500
O494        O  0.30358297  0.73490928  0.68784311    -0.75600
O495        O  0.18815629  0.77499632  0.75726916    -0.88360
O496        O  0.29891544  0.81466933  0.85062122    -0.81170
C497        C  0.19099258  0.85191493  0.83270738     0.92670
C498        C  0.14569079  0.83081607  0.69329900     0.92530
Mg499      Mg  0.32772615  0.75155392  0.79010191     1.57950
O500        O  0.34965788  0.70087148  0.81528038    -0.81090
O501        O  0.31187812  0.80447167  0.76561946    -0.75330
O502        O  0.18381346  0.84756006  0.80024955    -0.81170
O503        O  0.15275980  0.71656985  0.66406526    -0.82890
O504        O  0.31524030  0.65107542  0.70070962    -0.81200
C505        C  0.28373666  0.82249876  0.76512550     0.86960
O506        O  0.31108535  0.72408101  0.74400775    -0.88350
O507        O  0.27616790  0.74340926  0.81230762    -0.88450
O508        O  0.26540953  0.68723304  0.80473996    -0.75510
Mg509      Mg  0.20942983  0.82686259  0.74961499     1.57970
O510        O  0.21720064  0.83681811  0.84716290    -0.82880
H511        H  0.24727735  0.78484046  0.65252878    -0.06610
O512        O  0.24347261  0.68809881  0.72433866    -0.88150
H513        H  0.21519671  0.65097029  0.74879843    -0.06430
H514        H  0.34743264  0.74877493  0.71493214    -0.06610
C515        C  0.21546217  0.67660680  0.73637351     0.86940
C516        C  0.23481465  0.78403337  0.67811445     0.87530
C517        C  0.32198550  0.73602619  0.71571563     0.87570
H518        H  0.25199694  0.71410661  0.84883018    -0.06590
O519        O  0.19548416  0.76425178  0.81347971    -0.75620
Mg520      Mg  0.28998531  0.67213049  0.75162045     1.58000
H521        H  0.15171173  0.75037036  0.78628030    -0.06610
C522        C  0.16736340  0.69142760  0.64746190     0.92560
O523        O  0.28157625  0.66249580  0.65419042    -0.82840
C524        C  0.30764281  0.64688661  0.66828411     0.92620
O525        O  0.16182767  0.84506003  0.71889300    -0.82830
Mg526      Mg  0.24830823  0.78928500  0.82891524     1.58180
O527        O  0.20006609  0.68456976  0.65080163    -0.81160
O528        O  0.34620423  0.78259796  0.83746244    -0.82860
O529        O  0.18715562  0.24911894  0.77240220    -0.88440
C530        C  0.27920459  0.26028259  0.82597657     0.87590
Mg531      Mg  0.17575436  0.20412532  0.74068442     1.58150
O532        O  0.27136944  0.31384331  0.75107817    -0.88170
O533        O  0.19033394  0.30659975  0.76788103    -0.75500
C534        C  0.32140355  0.18155648  0.64618092     0.92640
O535        O  0.23588484  0.18943684  0.80657876    -0.75320
O536        O  0.29430328  0.16454542  0.65622523    -0.82830
Mg537      Mg  0.20581276  0.23878911  0.82448199     1.57960
C538        C  0.35242334  0.32222639  0.68006270     0.92560
O539        O  0.17388561  0.28539956  0.84722629    -0.81090
H540        H  0.24487095  0.35000110  0.72343660    -0.06430
C541        C  0.32517243  0.22208559  0.73856530     0.87500
O542        O  0.19204039  0.23448814  0.69089568    -0.75600
O543        O  0.25085485  0.27066364  0.81382562    -0.88360
O544        O  0.34605378  0.32737835  0.71260865    -0.81170
C545        C  0.32028065  0.35349647  0.82178431     0.92670
C546        C  0.17992829  0.31720509  0.85596123     0.92530
Mg547      Mg  0.29415722  0.26037942  0.67631966     1.57950
O548        O  0.32636452  0.21366338  0.65453061    -0.81090
O549        O  0.26378420  0.30971351  0.69396776    -0.75330
O550        O  0.28829214  0.34540803  0.82810555    -0.81170
O551        O  0.16008156  0.20337003  0.83684570    -0.82890
O552        O  0.21186456  0.15304244  0.67291017    -0.81200
C553        C  0.25978579  0.32576639  0.72303611     0.86960
O554        O  0.24922610  0.22836250  0.68669537    -0.88350
O555        O  0.31267743  0.25046662  0.72853378    -0.88450
O556        O  0.30950888  0.19297831  0.73324771    -0.75510
Mg557      Mg  0.24063104  0.32338953  0.79728746     1.57970
O558        O  0.33643841  0.34215246  0.79474444    -0.82880
H559        H  0.14992700  0.27759435  0.74841271    -0.06610
O560        O  0.22840092  0.18556775  0.74946707    -0.88150
H561        H  0.25457397  0.14912389  0.77702552    -0.06430
H562        H  0.22095996  0.25369087  0.65020999    -0.06610
C563        C  0.23982093  0.17345630  0.77748134     0.86940
C564        C  0.17457830  0.27754204  0.76261019     0.87530
C565        C  0.22094196  0.23906574  0.67465718     0.87570
H566        H  0.34968960  0.22211062  0.75299262    -0.06590
O567        O  0.30812302  0.26537892  0.80991141    -0.75620
Mg568      Mg  0.25950803  0.17566628  0.70356796     1.58000
H569        H  0.27927505  0.24565704  0.85042394    -0.06610
C570        C  0.14719524  0.17727782  0.82044274     0.92560
O571        O  0.16338417  0.15821940  0.70549036    -0.82840
C572        C  0.17959088  0.14577181  0.67898822     0.92620
O573        O  0.20677816  0.33398060  0.84501781    -0.82830
Mg574      Mg  0.32411738  0.29572870  0.75992481     1.58180
O575        O  0.15345506  0.17232750  0.78783126    -0.81160
O576        O  0.33980217  0.29589674  0.66384120    -0.82860
O577        O  0.27622137  0.75654041  0.31130465    -0.88440
C578        C  0.32299760  0.76446390  0.21572420     0.87590
Mg579      Mg  0.24894223  0.71011295  0.32762244     1.58150
O580        O  0.24347866  0.81076813  0.22297968    -0.88170
O581        O  0.26401460  0.81238316  0.30356334    -0.75500
C582        C  0.14785433  0.66655403  0.19187212     0.92640
O583        O  0.31352639  0.69641307  0.26566528    -0.75320
O584        O  0.16466805  0.65216078  0.21703416    -0.82830
Mg585      Mg  0.32839346  0.74961887  0.29023124     1.57960
C586        C  0.16830826  0.80675465  0.14574836     0.92560
O587        O  0.34913387  0.80098361  0.31539244    -0.81090
H588        H  0.21433070  0.84744286  0.24685462    -0.06430
C589        C  0.23636746  0.71476637  0.17697027     0.87500
O590        O  0.19585776  0.73421162  0.31178683    -0.75600
O591        O  0.31199983  0.77685358  0.24374249    -0.88360
O592        O  0.20090412  0.81388847  0.14963032    -0.81170
C593        C  0.30771337  0.85303551  0.16741868     0.92670
C594        C  0.35146204  0.83368099  0.30799726     0.92530
Mg595      Mg  0.17220153  0.75019986  0.20956717     1.57950
O596        O  0.15064939  0.69930265  0.18489930    -0.81090
O597        O  0.18731477  0.80328447  0.23388697    -0.75330
O598        O  0.31424904  0.85032805  0.20023386    -0.81170
O599        O  0.34648323  0.71885262  0.33820645    -0.82890
O600        O  0.18609259  0.64934675  0.29893596    -0.81200
C601        C  0.21514461  0.82179796  0.23459932     0.86960
O602        O  0.18883790  0.72274614  0.25572547    -0.88350
O603        O  0.22408320  0.74278347  0.18800923    -0.88450
O604        O  0.23618915  0.68689257  0.19547139    -0.75510
Mg605      Mg  0.28890206  0.82817786  0.25078373     1.57970
O606        O  0.28280887  0.83605481  0.15286827    -0.82880
H607        H  0.25099226  0.78500906  0.34759729    -0.06610
O608        O  0.25724973  0.68855396  0.27603315    -0.88150
H609        H  0.28679033  0.65225766  0.25203413    -0.06430
H610        H  0.15187028  0.74688707  0.28431771    -0.06610
C611        C  0.28574291  0.67779559  0.26449243     0.86940
C612        C  0.26369941  0.78453976  0.32212671     0.87530
C613        C  0.17755905  0.73464273  0.28382940     0.87570
H614        H  0.24882703  0.71433122  0.15137769    -0.06590
O615        O  0.30453704  0.76457006  0.18785361    -0.75620
Mg616      Mg  0.21152078  0.67127268  0.24832170     1.58000
H617        H  0.34858114  0.75200034  0.21527171    -0.06610
C618        C  0.33213582  0.69274961  0.35371980     0.92560
O619        O  0.21828552  0.66226186  0.34604972    -0.82840
C620        C  0.19296881  0.64576782  0.33159624     0.92620
O621        O  0.33527443  0.84761155  0.28221844    -0.82830
Mg622      Mg  0.25164926  0.78883100  0.17154426     1.58180
O623        O  0.29970835  0.68530481  0.34927187    -0.81160
O624        O  0.15390259  0.78102734  0.16181175    -0.82860
O625        O  0.68648827  0.25122891  0.22865425    -0.88440
C626        C  0.77884591  0.24041344  0.17498958     0.87590
Mg627      Mg  0.67527465  0.29600937  0.26086971     1.58150
O628        O  0.77168233  0.18674006  0.24986644    -0.88170
O629        O  0.69046976  0.19383010  0.23372978    -0.75500
C630        C  0.82075559  0.31830458  0.35530200     0.92640
O631        O  0.73529685  0.31109831  0.19423971    -0.75320
O632        O  0.79418545  0.33535532  0.34418558    -0.82830
Mg633      Mg  0.70536880  0.26173833  0.17628940     1.57960
C634        C  0.85322877  0.17849449  0.32051168     0.92560
O635        O  0.67372606  0.21489789  0.15316945    -0.81090
H636        H  0.74566433  0.15011337  0.27742322    -0.06430
C637        C  0.82537504  0.27849277  0.26211182     0.87500
O638        O  0.69223070  0.26574072  0.31048380    -0.75600
O639        O  0.75049351  0.22976320  0.18701897    -0.88360
O640        O  0.84683040  0.17332553  0.28796196    -0.81170
C641        C  0.82046344  0.14700366  0.17908664     0.92670
C642        C  0.67956784  0.18279909  0.14522773     0.92530
Mg643      Mg  0.79448152  0.23981261  0.32456036     1.57950
O644        O  0.82633834  0.28632525  0.34703293    -0.81090
O645        O  0.76438010  0.19038381  0.30699615    -0.75330
O646        O  0.78824275  0.15446944  0.17305940    -0.81170
O647        O  0.65980280  0.29786820  0.16374533    -0.82890
O648        O  0.71230869  0.34623507  0.32823439    -0.81200
C649        C  0.76036778  0.17448612  0.27788261     0.86960
O650        O  0.74947919  0.27159850  0.31401105    -0.88350
O651        O  0.81309614  0.25009426  0.27241000    -0.88450
O652        O  0.80942220  0.30748447  0.26706419    -0.75510
Mg653      Mg  0.74059569  0.17698988  0.20404930     1.57970
O654        O  0.83661292  0.15922363  0.20567994    -0.82880
H655        H  0.64976624  0.22245123  0.25316082    -0.06610
O656        O  0.72796416  0.31458910  0.25139142    -0.88150
H657        H  0.75374196  0.35141965  0.22389467    -0.06430
H658        H  0.72143400  0.24635404  0.35080032    -0.06610
C659        C  0.73916722  0.32697149  0.22338457     0.86940
C660        C  0.67433909  0.22271223  0.23876652     0.87530
C661        C  0.72126303  0.26098958  0.32636063     0.87570
H662        H  0.84988908  0.27854378  0.24761591    -0.06590
O663        O  0.80775588  0.23552648  0.19108200    -0.75620
Mg664      Mg  0.75949729  0.32430071  0.29703186     1.58000
H665        H  0.77891032  0.25516648  0.15061886    -0.06610
C666        C  0.64623616  0.32285710  0.18133519     0.92560
O667        O  0.66319652  0.34236660  0.29619650    -0.82840
C668        C  0.68016017  0.35393515  0.32258928     0.92620
O669        O  0.70617067  0.16616088  0.15696266    -0.82830
Mg670      Mg  0.82433185  0.20511985  0.24080630     1.58180
O671        O  0.65192968  0.32693774  0.21411310    -0.81160
O672        O  0.84025595  0.20459343  0.33682753    -0.82860
O673        O  0.27607034  0.24323005  0.18912124    -0.88440
C674        C  0.32158670  0.23689930  0.28531674     0.87590
Mg675      Mg  0.24860986  0.28933258  0.17189570     1.58150
O676        O  0.24297071  0.18918503  0.27677676    -0.88170
O677        O  0.26575506  0.18696214  0.19685943    -0.75500
C678        C  0.14518474  0.33291916  0.30609478     0.92640
O679        O  0.31196918  0.30447551  0.23460261    -0.75320
O680        O  0.16148018  0.34710471  0.28043054    -0.82830
Mg681      Mg  0.32778311  0.25126482  0.21069244     1.57960
C682        C  0.16614601  0.19342084  0.35282406     0.92560
O683        O  0.34952121  0.20011848  0.18627662    -0.81090
H684        H  0.21454128  0.15251534  0.25205603    -0.06430
C685        C  0.23366958  0.28574698  0.32206321     0.87500
O686        O  0.19546712  0.26483867  0.18696109    -0.75600
O687        O  0.31122148  0.22424728  0.25721804    -0.88360
O688        O  0.19883933  0.18660719  0.34945812    -0.81170
C689        C  0.30615291  0.14897614  0.33484551     0.92670
C690        C  0.35368339  0.16767705  0.19409031     0.92530
Mg691      Mg  0.17064847  0.24942424  0.28882315     1.57950
O692        O  0.14877808  0.30031233  0.31341661    -0.81090
O693        O  0.18693979  0.19639165  0.26481713    -0.75330
O694        O  0.31468383  0.15167958  0.30241004    -0.81170
O695        O  0.34627587  0.28170173  0.16260361    -0.82890
O696        O  0.18471295  0.34927530  0.19920386    -0.81200
C697        C  0.21494364  0.17808836  0.26448040     0.86960
O698        O  0.18757267  0.27666353  0.24281397    -0.88350
O699        O  0.22209607  0.25755100  0.31074411    -0.88450
O700        O  0.23329516  0.31364232  0.30361422    -0.75510
Mg701      Mg  0.28984225  0.17227012  0.25043800     1.57970
O702        O  0.27975653  0.16515606  0.34746155    -0.82880
H703        H  0.25238851  0.21378312  0.15259046    -0.06610
O704        O  0.25578553  0.31142557  0.22343563    -0.88150
H705        H  0.28444259  0.34836692  0.24748667    -0.06430
H706        H  0.15114500  0.25208030  0.21396800    -0.06610
C707        C  0.28393443  0.32270454  0.23525150     0.86940
C708        C  0.26462924  0.21478156  0.17824078     0.87530
C709        C  0.17675404  0.26449616  0.21467612     0.87570
H710        H  0.24559867  0.28636412  0.34787280    -0.06590
O711        O  0.30260240  0.23663627  0.31286366    -0.75620
Mg712      Mg  0.20936025  0.32836821  0.25024637     1.58000
H713        H  0.34703944  0.24962464  0.28613919    -0.06610
C714        C  0.33185453  0.30745975  0.14666650     0.92560
O715        O  0.21810811  0.33693964  0.15273615    -0.82840
C716        C  0.19227756  0.35303680  0.16671172     0.92620
O717        O  0.33797120  0.15367760  0.22025238    -0.82830
Mg718      Mg  0.24949694  0.21193374  0.32803565     1.58180
O719        O  0.29932043  0.31455836  0.15073265    -0.81160
O720        O  0.15169504  0.21877335  0.33635428    -0.82860
O721        O  0.77664442  0.74311096  0.68903355    -0.88440
C722        C  0.82232167  0.73572684  0.78509900     0.87590
Mg723      Mg  0.74931119  0.78876834  0.67149372     1.58150
O724        O  0.74304642  0.68904297  0.77700512    -0.88170
O725        O  0.76490850  0.68715047  0.69656713    -0.75500
C726        C  0.64570656  0.83311246  0.80582008     0.92640
O727        O  0.81208775  0.80394031  0.73506179    -0.75320
O728        O  0.66171253  0.84743831  0.77999548    -0.82830
Mg729      Mg  0.82813484  0.75086932  0.71106812     1.57960
C730        C  0.66709929  0.69395829  0.85348058     0.92560
O731        O  0.84982895  0.69992072  0.68645145    -0.81090
H732        H  0.71426312  0.65222691  0.75294143    -0.06430
C733        C  0.73481345  0.78602930  0.82157790     0.87500
O734        O  0.69621963  0.76435444  0.68690241    -0.75600
O735        O  0.81123853  0.72353486  0.75708111    -0.88360
O736        O  0.69978059  0.68688777  0.85030760    -0.81170
C737        C  0.80661126  0.64720031  0.83325247     0.92670
C738        C  0.85292069  0.66721918  0.69357088     0.92530
Mg739      Mg  0.67149774  0.74969455  0.78894568     1.57950
O740        O  0.64974074  0.80062318  0.81333744    -0.81090
O741        O  0.68707705  0.69649052  0.76516458    -0.75330
O742        O  0.81350915  0.65021922  0.80054247    -0.81170
O743        O  0.84715594  0.78160688  0.66367124    -0.82890
O744        O  0.68482751  0.84990579  0.69768766    -0.81200
C745        C  0.71489362  0.67795213  0.76503806     0.86960
O746        O  0.68813555  0.77685375  0.74257375    -0.88350
O747        O  0.72316323  0.75759727  0.81086311    -0.88450
O748        O  0.73383566  0.81378961  0.80286096    -0.75510
Mg749      Mg  0.78900378  0.67192441  0.74971687     1.57970
O750        O  0.78162814  0.66423647  0.84773228    -0.82880
H751        H  0.75257181  0.71432158  0.65226476    -0.06610
O752        O  0.75621543  0.81184517  0.72269993    -0.88150
H753        H  0.78494912  0.84816094  0.74757647    -0.06430
H754        H  0.65185273  0.75182542  0.71393781    -0.06610
C755        C  0.78431688  0.82259708  0.73514391     0.86940
C756        C  0.76471330  0.71495580  0.67797444     0.87530
C757        C  0.67742573  0.76431898  0.71456140     0.87570
H758        H  0.74717460  0.78704250  0.84716964    -0.06590
O759        O  0.80374358  0.73574459  0.81289178    -0.75620
Mg760      Mg  0.70963989  0.82883410  0.74944884     1.58000
H761        H  0.84803193  0.74794193  0.78559836    -0.06610
C762        C  0.83285571  0.80675924  0.64676053     0.92560
O763        O  0.71856305  0.83540184  0.65187713    -0.82840
C764        C  0.69270818  0.85209117  0.66506236     0.92620
O765        O  0.83639726  0.65299503  0.71906592    -0.82830
Mg766      Mg  0.75064220  0.71160309  0.82842361     1.58180
O767        O  0.80013001  0.81370607  0.64968169    -0.81160
O768        O  0.65279610  0.71920301  0.83669314    -0.82860
C769        C  0.89063249  0.08678817  0.14140400    -0.21400
C770        C  0.87723855  0.07939591  0.10787228    -0.09450
C771        C  0.84486049  0.09413688  0.09771770     0.29410
C772        C  0.82618450  0.11572290  0.12109238    -0.21400
C773        C  0.83984942  0.12349980  0.15463568    -0.09460
C774        C  0.87249318  0.10879300  0.16443558     0.29420
F775        F  0.88701528  0.11536635  0.19638003    -0.19980
H776        H  0.91569142  0.07592813  0.14963676     0.17780
H777        H  0.80119273  0.12663590  0.11278170     0.17790
F778        F  0.83093540  0.08703868  0.06563021    -0.19970
C779        C  0.14023838  0.87788225  0.08082461    -0.21400
C780        C  0.10381638  0.87192710  0.07839936    -0.09450
C781        C  0.08889894  0.84406876  0.09782969     0.29410
C782        C  0.11006564  0.82286950  0.11925055    -0.21400
C783        C  0.14648867  0.82906416  0.12208704    -0.09460
C784        C  0.16137307  0.85695438  0.10251303     0.29420
F785        F  0.19629373  0.86434488  0.10434893    -0.19980
H786        H  0.15239048  0.89928334  0.06634914     0.17780
H787        H  0.09774668  0.80165090  0.13383840     0.17790
F788        F  0.05393959  0.83691162  0.09581941    -0.19970
C789        C  0.09831362  0.13189404  0.89500677    -0.21400
C790        C  0.07998654  0.10547144  0.87718288    -0.09450
C791        C  0.08409991  0.10199936  0.84066722     0.29410
C792        C  0.10601114  0.12535119  0.82219051    -0.21400
C793        C  0.12437203  0.15217540  0.84001268    -0.09460
C794        C  0.12058050  0.15478938  0.87687313     0.29420
F795        F  0.13853866  0.17922576  0.89569810    -0.19980
H796        H  0.09562486  0.13455455  0.92327382     0.17780
H797        H  0.10836795  0.12259706  0.79392704     0.17790
F798        F  0.06615816  0.07682071  0.82284301    -0.19970
C799        C  0.18032574  0.88821059  0.88657842    -0.21400
C800        C  0.16830939  0.87538297  0.85403948    -0.09450
C801        C  0.13449811  0.88523584  0.84228063     0.29410
C802        C  0.11359529  0.90769882  0.86249490    -0.21400
C803        C  0.12557966  0.92016746  0.89501575    -0.09460
C804        C  0.15913623  0.91029546  0.90698335     0.29420
F805        F  0.17173001  0.92266997  0.93800027    -0.19980
H806        H  0.20625932  0.88130888  0.89619988     0.17780
H807        H  0.08755843  0.91464332  0.85315557     0.17790
F808        F  0.12112280  0.87247783  0.81175057    -0.19970
C809        C  0.89036038  0.17437772  0.87848393    -0.21400
C810        C  0.85356179  0.17041635  0.87764653    -0.09450
C811        C  0.83788909  0.14457812  0.89931519     0.29410
C812        C  0.85867441  0.12332876  0.92101170    -0.21400
C813        C  0.89547374  0.12695786  0.92140870    -0.09460
C814        C  0.91115337  0.15287437  0.89992989     0.29420
F815        F  0.94655801  0.15779607  0.89981721    -0.19980
H816        H  0.90324770  0.19398076  0.86221598     0.17780
H817        H  0.84589155  0.10353683  0.93713957     0.17790
F818        F  0.80248712  0.13964316  0.89967048    -0.19970
C819        C  0.91553064  0.90335078  0.16080625    -0.21400
C820        C  0.91999310  0.89429365  0.12534836    -0.09450
C821        C  0.90287350  0.86446119  0.11198441     0.29410
C822        C  0.88159810  0.84391354  0.13392061    -0.21400
C823        C  0.87703231  0.85280519  0.16952323    -0.09460
C824        C  0.89446366  0.88265696  0.18289439     0.29420
F825        F  0.89184044  0.89139204  0.21741488    -0.19980
H826        H  0.92880928  0.92618896  0.17148466     0.17780
H827        H  0.86816418  0.82135018  0.12287099     0.17790
F828        F  0.90573012  0.85596837  0.07741667    -0.19970
C829        C  0.59584095  0.15110719  0.10049470    -0.21400
C830        C  0.60896267  0.12402071  0.07899322    -0.09450
C831        C  0.64549956  0.11744218  0.07882431     0.29410
C832        C  0.66804203  0.13698989  0.10012916    -0.21400
C833        C  0.65501487  0.16391769  0.12168685    -0.09460
C834        C  0.61865627  0.17116486  0.12142888     0.29420
F835        F  0.60499863  0.19666536  0.14233816    -0.19980
H836        H  0.56789793  0.15675329  0.10112514     0.17780
H837        H  0.69591795  0.13094330  0.09980583     0.17790
F838        F  0.65954171  0.09134723  0.05890823    -0.19970
C839        C  0.39965673  0.16211103  0.14709929    -0.21400
C840        C  0.37740623  0.14585843  0.17191032    -0.09450
C841        C  0.37768288  0.10883176  0.17451050     0.29410
C842        C  0.39937094  0.08882234  0.15250763    -0.21400
C843        C  0.42154259  0.10509973  0.12767547    -0.09460
C844        C  0.42156614  0.14211190  0.12532872     0.29420
F845        F  0.44203406  0.15910082  0.10139834    -0.19980
H846        H  0.40008998  0.19049431  0.14438092     0.17780
H847        H  0.39879229  0.06041693  0.15498036     0.17790
F848        F  0.35655966  0.09173717  0.19778322    -0.19970
C849        C  0.35899607  0.89002039  0.09018024    -0.21400
C850        C  0.37323644  0.92106132  0.10444004    -0.09450
C851        C  0.36517076  0.92970183  0.13963345     0.29410
C852        C  0.34394838  0.90741702  0.15996055    -0.21400
C853        C  0.32984701  0.87648913  0.14558415    -0.09460
C854        C  0.33748719  0.86800859  0.11040997     0.29420
F855        F  0.32520596  0.83778665  0.09590052    -0.19980
H856        H  0.36481812  0.88242855  0.06334599     0.17780
H857        H  0.33819999  0.91456077  0.18694320     0.17790
F858        F  0.37754707  0.95969224  0.15451600    -0.19970
C859        C  0.62488579  0.89172322  0.82734616    -0.21400
C860        C  0.62202659  0.85485154  0.82799333    -0.09450
C861        C  0.59694328  0.83924252  0.85050637     0.29410
C862        C  0.57562519  0.86014927  0.87199069    -0.21400
C863        C  0.57892106  0.89701584  0.87185470    -0.09460
C864        C  0.60380265  0.91262936  0.84906861     0.29420
F865        F  0.60791337  0.94810090  0.84761564    -0.19980
H866        H  0.64395491  0.90449618  0.81036956     0.17780
H867        H  0.55674349  0.84730039  0.88911513     0.17790
F868        F  0.59270677  0.80377392  0.85168573    -0.19970
C869        C  0.62394332  0.07941672  0.85895873    -0.21400
C870        C  0.62711677  0.07966571  0.89579261    -0.09450
C871        C  0.65267845  0.10154626  0.91129330     0.29410
C872        C  0.67418333  0.12283580  0.89030215    -0.21400
C873        C  0.67061866  0.12307245  0.85347393    -0.09460
C874        C  0.64524501  0.10091263  0.83796790     0.29420
F875        F  0.64083682  0.09987402  0.80253948    -0.19980
H876        H  0.60450273  0.06289767  0.84627905     0.17780
H877        H  0.69346086  0.13947776  0.90306156     0.17790
F878        F  0.65722296  0.10226417  0.94671479    -0.19970
C879        C  0.35923939  0.87079005  0.92647766    -0.21400
C880        C  0.39564934  0.87392430  0.92034630    -0.09450
C881        C  0.41074499  0.85442579  0.89259635     0.29410
C882        C  0.38981817  0.83265588  0.87165889    -0.21400
C883        C  0.35339826  0.83002714  0.87745768    -0.09460
C884        C  0.33827495  0.84924104  0.90526635     0.29420
F885        F  0.30331650  0.84686469  0.91236972    -0.19980
H886        H  0.34679713  0.88522851  0.94764357     0.17780
H887        H  0.40212993  0.81828601  0.85035881     0.17790
F888        F  0.44569887  0.85639601  0.88534168    -0.19970
C889        C  0.11005759  0.08450722  0.64203796    -0.21400
C890        C  0.12270909  0.07828966  0.60793550    -0.09450
C891        C  0.15446047  0.09406884  0.59724266     0.29410
C892        C  0.17320991  0.11556240  0.62058961    -0.21400
C893        C  0.16022321  0.12222649  0.65465517    -0.09460
C894        C  0.12827105  0.10642864  0.66506826     0.29420
F895        F  0.11456056  0.11183006  0.69762027    -0.19980
H896        H  0.08550393  0.07282074  0.65073420     0.17780
H897        H  0.19767775  0.12735072  0.61183410     0.17790
F898        F  0.16769425  0.08814697  0.56459599    -0.19970
C899        C  0.08795142  0.14806822  0.39581224    -0.21400
C900        C  0.10442201  0.12697944  0.42144504    -0.09450
C901        C  0.14136969  0.12845590  0.42457511     0.29410
C902        C  0.16110581  0.15017527  0.40228625    -0.21400
C903        C  0.14460552  0.17113998  0.37662468    -0.09460
C904        C  0.10767650  0.16997015  0.37371735     0.29420
F905        F  0.09055277  0.18923146  0.34894397    -0.19980
H906        H  0.05962076  0.14754485  0.39264029     0.17780
H907        H  0.18947050  0.15059162  0.40520398     0.17790
F908        F  0.15866685  0.10858140  0.44873015    -0.19970
C909        C  0.83917610  0.84631874  0.59449457    -0.21400
C910        C  0.85474959  0.82861705  0.62298665    -0.09450
C911        C  0.89113744  0.83248133  0.62868814     0.29410
C912        C  0.91129603  0.85382528  0.60644870    -0.21400
C913        C  0.89578907  0.87168155  0.57791784    -0.09460
C914        C  0.85937255  0.86744270  0.57202420     0.29420
F915        F  0.84303932  0.88380141  0.54476748    -0.19980
H916        H  0.81124073  0.84364061  0.58943493     0.17780
H917        H  0.93914555  0.85658735  0.61188179     0.17790
F918        F  0.90713999  0.81656884  0.65641084    -0.19970
C919        C  0.90515292  0.13572462  0.39450567    -0.21400
C920        C  0.92033999  0.10682804  0.37754871    -0.09450
C921        C  0.91334549  0.10109716  0.34176111     0.29410
C922        C  0.89166996  0.12452246  0.32315285    -0.21400
C923        C  0.87625820  0.15364475  0.34015704    -0.09460
C924        C  0.88304401  0.15868252  0.37632729     0.29420
F925        F  0.86827066  0.18564570  0.39447466    -0.19980
H926        H  0.91005173  0.14023760  0.42222245     0.17780
H927        H  0.88700623  0.11986613  0.29544365     0.17790
F928        F  0.92826631  0.07355286  0.32465113    -0.19970
C929        C  0.10252812  0.90975886  0.64941523    -0.21400
C930        C  0.07857544  0.89355109  0.62638216    -0.09450
C931        C  0.07641156  0.85650785  0.62618138     0.29410
C932        C  0.09809976  0.83642519  0.64813290    -0.21400
C933        C  0.12218506  0.85265106  0.67099531    -0.09460
C934        C  0.12399762  0.88969242  0.67155854     0.29420
F935        F  0.14707792  0.90669100  0.69283154    -0.19980
H936        H  0.10481547  0.93816184  0.65028294     0.17780
H937        H  0.09602142  0.80800946  0.64714857     0.17790
F938        F  0.05387491  0.83948022  0.60436478    -0.19970
C939        C  0.85563619  0.89224828  0.40991462    -0.21400
C940        C  0.87415885  0.92023924  0.39411727    -0.09450
C941        C  0.87018235  0.92597325  0.35766012     0.29410
C942        C  0.84860471  0.90388067  0.33770683    -0.21400
C943        C  0.83017399  0.87598767  0.35359711    -0.09460
C944        C  0.83382118  0.87042278  0.39000768     0.29420
F945        F  0.81720610  0.84322489  0.40627577    -0.19980
H946        H  0.85814647  0.88697548  0.43782210     0.17780
H947        H  0.84611666  0.90878298  0.30972351     0.17790
F948        F  0.88720686  0.95271018  0.34107417    -0.19970
C949        C  0.09391724  0.65956842  0.15514094    -0.21400
C950        C  0.12428785  0.64472507  0.17003935    -0.09450
C951        C  0.13202796  0.60915992  0.16348566     0.29410
C952        C  0.10989053  0.58904099  0.14215333    -0.21400
C953        C  0.07946270  0.60381705  0.12704487    -0.09460
C954        C  0.07151819  0.63938330  0.13410705     0.29420
F955        F  0.04215275  0.65482241  0.12083704    -0.19980
H956        H  0.08730847  0.68685375  0.16006834     0.17780
H957        H  0.11691970  0.56188791  0.13713665     0.17790
F958        F  0.16165651  0.59412220  0.17664608    -0.19970
C959        C  0.15716180  0.40652199  0.08953344    -0.21400
C960        C  0.12611447  0.42051298  0.10384683    -0.09450
C961        C  0.11721389  0.41255354  0.13887192     0.29410
C962        C  0.13894324  0.39081741  0.15904343    -0.21400
C963        C  0.17010590  0.37668094  0.14485978    -0.09460
C964        C  0.17918113  0.38507342  0.10982165     0.29420
F965        F  0.20936093  0.37285870  0.09510023    -0.19980
H966        H  0.16459825  0.41254056  0.06265014     0.17780
H967        H  0.13104028  0.38474947  0.18577391     0.17790
F968        F  0.08685230  0.42473741  0.15326447    -0.19970
C969        C  0.14399880  0.37306228  0.92955590    -0.21400
C970        C  0.10805912  0.37548000  0.92074306    -0.09450
C971        C  0.09573347  0.35675000  0.89117862     0.29410
C972        C  0.11906041  0.33665647  0.87089903    -0.21400
C973        C  0.15500070  0.33548505  0.87924785    -0.09460
C974        C  0.16726475  0.35354472  0.90891658     0.29420
F975        F  0.20178380  0.35211117  0.91805780    -0.19980
H976        H  0.15440945  0.38680664  0.95220405     0.17780
H977        H  0.10928358  0.32298005  0.84791238     0.17790
F978        F  0.06143405  0.35834002  0.88131772    -0.19970
C979        C  0.86068449  0.61632559  0.08734149    -0.21400
C980        C  0.89541577  0.62601122  0.07935189    -0.09450
C981        C  0.90901548  0.65747899  0.09318703     0.29410
C982        C  0.88815935  0.67868301  0.11482572    -0.21400
C983        C  0.85345666  0.66882607  0.12333475    -0.09460
C984        C  0.83993230  0.63722841  0.10931285     0.29420
F985        F  0.80692318  0.62599190  0.11725093    -0.19980
H986        H  0.84982637  0.59200684  0.07720866     0.17780
H987        H  0.89927363  0.70288674  0.12492262     0.17790
F988        F  0.94220929  0.66812900  0.08520603    -0.19970
C989        C  0.83264690  0.63010874  0.89112311    -0.21400
C990        C  0.82858689  0.62349245  0.85503877    -0.09450
C991        C  0.84636959  0.59468144  0.84005134     0.29410
C992        C  0.86801754  0.57330677  0.86078503    -0.21400
C993        C  0.87266779  0.58024301  0.89682602    -0.09460
C994        C  0.85455983  0.60898378  0.91182554     0.29420
F995        F  0.85820900  0.61713928  0.94638866    -0.19980
H996        H  0.81940517  0.65222862  0.90325475     0.17780
H997        H  0.88132292  0.55135503  0.84843810     0.17790
F998        F  0.84249018  0.58678357  0.80544932    -0.19970
C999        C  0.87691819  0.39112016  0.82639861    -0.21400
C1000       C  0.87769289  0.35422749  0.82933936    -0.09450
C1001       C  0.90114357  0.33874089  0.85358651     0.29410
C1002       C  0.92291033  0.35979627  0.87442062    -0.21400
C1003       C  0.92165713  0.39668978  0.87192625    -0.09460
C1004       C  0.89845543  0.41217858  0.84747664     0.29420
F1005       F  0.89663621  0.44766844  0.84363966    -0.19980
H1006       H  0.85924757  0.40385236  0.80799681     0.17780
H1007       H  0.94042984  0.34710051  0.89299481     0.17790
F1008       F  0.90327211  0.30324832  0.85723229    -0.19970
C1009       C  0.34618817  0.11158594  0.41838921    -0.21400
C1010       C  0.37129941  0.08818199  0.40502182    -0.09450
C1011       C  0.37426954  0.08384147  0.36840051     0.29410
C1012       C  0.35289126  0.10343859  0.34560398    -0.21400
C1013       C  0.32780019  0.12714959  0.35897435    -0.09460
C1014       C  0.32437713  0.13060227  0.39580427     0.29420
F1015       F  0.30060001  0.15300505  0.41024832    -0.19980
H1016       H  0.34340146  0.11513672  0.44654025     0.17780
H1017       H  0.35613791  0.10019779  0.31747930     0.17790
F1018       F  0.39878140  0.06179948  0.35464830    -0.19970
C1019       C  0.61033225  0.84072723  0.35674836    -0.21400
C1020       C  0.64281906  0.83128990  0.37142120    -0.09450
C1021       C  0.65164473  0.84352708  0.40511829     0.29410
C1022       C  0.62790898  0.86468199  0.42386630    -0.21400
C1023       C  0.59533846  0.87443846  0.40900888    -0.09460
C1024       C  0.58696487  0.86227533  0.37499339     0.29420
F1025       F  0.55612733  0.87093952  0.35915904    -0.19980
H1026       H  0.60317597  0.83172294  0.33068024     0.17780
H1027       H  0.63514421  0.87360041  0.44992036     0.17790
F1028       F  0.68264275  0.83423381  0.42024860    -0.19970
C1029       C  0.64083447  0.10924322  0.66252024    -0.21400
C1030       C  0.62779022  0.14299002  0.66969309    -0.09450
C1031       C  0.59532151  0.15326466  0.65525991     0.29410
C1032       C  0.57626507  0.12984523  0.63409839    -0.21400
C1033       C  0.58962074  0.09612627  0.62647298    -0.09460
C1034       C  0.62229170  0.08614700  0.64095871     0.29420
F1035       F  0.63642841  0.05396268  0.63460477    -0.19980
H1036       H  0.66590921  0.10087054  0.67323040     0.17780
H1037       H  0.55124205  0.13826998  0.62335045     0.17790
F1038       F  0.58167420  0.18551176  0.66226476    -0.19970
C1039       C  0.66658134  0.86237502  0.60609606    -0.21400
C1040       C  0.67065030  0.87340622  0.64107396    -0.09450
C1041       C  0.65332263  0.90412107  0.65229108     0.29410
C1042       C  0.63231801  0.92328429  0.62871336    -0.21400
C1043       C  0.62768953  0.91174556  0.59384775    -0.09460
C1044       C  0.64519147  0.88100938  0.58280164     0.29420
F1045       F  0.64195188  0.86893664  0.54936276    -0.19980
H1046       H  0.67953543  0.83873470  0.59684345     0.17780
H1047       H  0.61917108  0.94682277  0.63792276     0.17790
F1048       F  0.65713926  0.91592649  0.68575119    -0.19970
C1049       C  0.38426481  0.16845110  0.63268987    -0.21400
C1050       C  0.34844567  0.16326051  0.62513305    -0.09450
C1051       C  0.33894110  0.13945714  0.59854829     0.29410
C1052       C  0.36491693  0.12105263  0.58006378    -0.21400
C1053       C  0.40071216  0.12527617  0.58844618    -0.09460
C1054       C  0.41021141  0.14928536  0.61491065     0.29420
F1055       F  0.44453280  0.15445117  0.62338872    -0.19980
H1056       H  0.39210521  0.18661758  0.65316879     0.17780
H1057       H  0.35696753  0.10271265  0.55978451     0.17790
F1058       F  0.30458257  0.13422752  0.59025112    -0.19970
C1059       C  0.42734511  0.87931729  0.35347727    -0.21400
C1060       C  0.40929359  0.90412529  0.37427160    -0.09450
C1061       C  0.37214104  0.90440774  0.37356594     0.29410
C1062       C  0.35380434  0.88118162  0.35193047    -0.21400
C1063       C  0.37186016  0.85684324  0.33110101    -0.09460
C1064       C  0.40875868  0.85575633  0.33206368     0.29420
F1065       F  0.42673123  0.83267735  0.31160250    -0.19980
H1066       H  0.45584592  0.87841696  0.35345519     0.17780
H1067       H  0.32528426  0.88204059  0.35155977     0.17790
F1068       F  0.35330660  0.92677655  0.39405827    -0.19970
C1069       C  0.39445413  0.66200389  0.85942168    -0.21400
C1070       C  0.37766651  0.64674472  0.83019607    -0.09450
C1071       C  0.38340118  0.61072465  0.82328533     0.29410
C1072       C  0.40480662  0.59062547  0.84550784    -0.21400
C1073       C  0.42137702  0.60593128  0.87472340    -0.09460
C1074       C  0.41613017  0.64195257  0.88139382     0.29420
F1075       F  0.43095465  0.65761154  0.90982851    -0.19980
H1076       H  0.39056012  0.68953824  0.86561702     0.17780
H1077       H  0.40861882  0.56298837  0.83968520     0.17790
F1078       F  0.36833117  0.59469439  0.79519460    -0.19970
C1079       C  0.38950488  0.32277121  0.11835066    -0.21400
C1080       C  0.35340934  0.32980264  0.12276918    -0.09450
C1081       C  0.33851256  0.35849304  0.10439392     0.29410
C1082       C  0.35934262  0.37939853  0.08234344    -0.21400
C1083       C  0.39545140  0.37264110  0.07846315    -0.09460
C1084       C  0.41037541  0.34397737  0.09660638     0.29420
F1085       F  0.44503723  0.33605580  0.09294875    -0.19980
H1086       H  0.40177858  0.30088190  0.13190546     0.17780
H1087       H  0.34730133  0.40147109  0.06885675     0.17790
F1088       F  0.30391827  0.36677790  0.10786618    -0.19970
C1089       C  0.68022516  0.61270141  0.11286602    -0.21400
C1090       C  0.66955756  0.62256309  0.14691199    -0.09450
C1091       C  0.63717499  0.60977020  0.15996625     0.29410
C1092       C  0.61631888  0.58757722  0.13942143    -0.21400
C1093       C  0.62685216  0.57824032  0.10533694    -0.09460
C1094       C  0.65905708  0.59089753  0.09218516     0.29420
F1095       F  0.67039718  0.58161136  0.05961377    -0.19980
H1096       H  0.70503661  0.62185728  0.10214855     0.17780
H1097       H  0.59136649  0.57841293  0.14982975     0.17790
F1098       F  0.62509262  0.61927587  0.19220567    -0.19970
C1099       C  0.56555325  0.37154329  0.14968122    -0.21400
C1100       C  0.58023811  0.39425127  0.12439637    -0.09450
C1101       C  0.61684010  0.39409274  0.11889216     0.29410
C1102       C  0.63821530  0.37075723  0.13768479    -0.21400
C1103       C  0.62353148  0.34810954  0.16290263    -0.09460
C1104       C  0.58713852  0.34898963  0.16929169     0.29420
F1105       F  0.57243882  0.32727275  0.19363248    -0.19980
H1106       H  0.53739158  0.37135901  0.15423775     0.17780
H1107       H  0.66627030  0.37024974  0.13250915     0.17790
F1108       F  0.63168618  0.41537104  0.09424412    -0.19970
C1109       C  0.58851150  0.64853901  0.89560346    -0.21400
C1110       C  0.60460409  0.62840834  0.92222300    -0.09450
C1111       C  0.64142345  0.63071174  0.92640133     0.29410
C1112       C  0.66141609  0.65215900  0.90407898    -0.21400
C1113       C  0.64529935  0.67206482  0.87737791    -0.09460
C1114       C  0.60849263  0.67018450  0.87348493     0.29420
F1115       F  0.59178886  0.68839736  0.84765549    -0.19980
H1116       H  0.56030850  0.64736684  0.89159265     0.17780
H1117       H  0.68967119  0.65321527  0.90778469     0.17790
F1118       F  0.65836996  0.61198177  0.95169277    -0.19970
C1119       C  0.36652152  0.39837802  0.83314760    -0.21400
C1120       C  0.33933699  0.37700933  0.84619951    -0.09450
C1121       C  0.33141272  0.37799906  0.88240225     0.29410
C1122       C  0.35092421  0.39958344  0.90502360    -0.21400
C1123       C  0.37811562  0.42103085  0.89185616    -0.09460
C1124       C  0.38552971  0.42034576  0.85551204     0.29420
F1125       F  0.41188222  0.44011173  0.84154720    -0.19980
H1126       H  0.37307281  0.39817619  0.80539139     0.17780
H1127       H  0.34471263  0.39956989  0.93284962     0.17790
F1128       F  0.30562618  0.35734392  0.89611829    -0.19970
C1129       C  0.10055063  0.33865143  0.35427601    -0.21400
C1130       C  0.12157257  0.35475438  0.32832847    -0.09450
C1131       C  0.12027627  0.39168860  0.32471645     0.29410
C1132       C  0.09886428  0.41176378  0.34689605    -0.21400
C1133       C  0.07799250  0.39562486  0.37288328    -0.09460
C1134       C  0.07893340  0.35871294  0.37623491     0.29420
F1135       F  0.05976871  0.34193367  0.40136429    -0.19980
H1136       H  0.10093638  0.31035862  0.35782599     0.17780
H1137       H  0.09859036  0.44009588  0.34363273     0.17790
F1138       F  0.14002447  0.40865552  0.30017698    -0.19970
C1139       C  0.89425125  0.58818647  0.64856983    -0.21400
C1140       C  0.91990121  0.60416163  0.62710597    -0.09450
C1141       C  0.92366592  0.64106857  0.62825141     0.29410
C1142       C  0.90195004  0.66125225  0.65001387    -0.21400
C1143       C  0.87626877  0.64524788  0.67136396    -0.09460
C1144       C  0.87274792  0.60835291  0.67052948     0.29420
F1145       F  0.84792716  0.59168064  0.69018010    -0.19980
H1146       H  0.89063693  0.55990791  0.64832825     0.17780
H1147       H  0.90531758  0.68956554  0.65015158     0.17790
F1148       F  0.94790829  0.65790237  0.60802888    -0.19970
C1149       C  0.13965732  0.62967587  0.57406161    -0.21400
C1150       C  0.10340877  0.62574604  0.58071177    -0.09450
C1151       C  0.08844689  0.64422890  0.60921561     0.29410
C1152       C  0.10934209  0.66586318  0.63032521    -0.21400
C1153       C  0.14559608  0.66930443  0.62395086    -0.09460
C1154       C  0.16059244  0.65106226  0.59544740     0.29420
F1155       F  0.19536968  0.65431132  0.58780822    -0.19980
H1156       H  0.15199335  0.61603154  0.55231283     0.17780
H1157       H  0.09717085  0.67947364  0.65219928     0.17790
F1158       F  0.05368834  0.64132937  0.61707780    -0.19970
C1159       C  0.88466441  0.38605766  0.61480159    -0.21400
C1160       C  0.87328892  0.41975556  0.60492130    -0.09450
C1161       C  0.84006566  0.43173045  0.61583744     0.29410
C1162       C  0.81830135  0.40990643  0.63613242    -0.21400
C1163       C  0.82991398  0.37638726  0.64639707    -0.09460
C1164       C  0.86330455  0.36461498  0.63582623     0.29420
F1165       F  0.87495634  0.33222002  0.64546224    -0.19980
H1166       H  0.91026047  0.37656829  0.60653258     0.17780
H1167       H  0.79258816  0.41925315  0.64418283     0.17790
F1168       F  0.82855764  0.46422578  0.60639475    -0.19970
C1169       C  0.17214647  0.62428984  0.39038689    -0.21400
C1170       C  0.17069040  0.62213529  0.35348469    -0.09450
C1171       C  0.14737432  0.59777123  0.33809780     0.29410
C1172       C  0.12594383  0.57648778  0.35924279    -0.21400
C1173       C  0.12693742  0.57908780  0.39614169    -0.09460
C1174       C  0.15050841  0.60322300  0.41152741     0.29420
F1175       F  0.15288400  0.60653409  0.44700658    -0.19980
H1176       H  0.18977148  0.64274096  0.40304692     0.17780
H1177       H  0.10817438  0.55818940  0.34656499     0.17790
F1178       F  0.14528305  0.59424298  0.30262175    -0.19970
C1179       C  0.85844580  0.36691761  0.43290345    -0.21400
C1180       C  0.89281895  0.37464920  0.42123798    -0.09450
C1181       C  0.90363927  0.36210098  0.38801139     0.29410
C1182       C  0.88031575  0.34280508  0.36703536    -0.21400
C1183       C  0.84584741  0.33623626  0.37850734    -0.09460
C1184       C  0.83512406  0.34808859  0.41169238     0.29420
F1185       F  0.80210699  0.34127506  0.42362527    -0.19980
H1186       H  0.84932348  0.37585871  0.45836729     0.17780
H1187       H  0.88880168  0.33389252  0.34132774     0.17790
F1188       F  0.93622364  0.36936315  0.37519590    -0.19970
C1189       C  0.35978212  0.62046245  0.41748807    -0.21400
C1190       C  0.39579227  0.62756722  0.42170628    -0.09450
C1191       C  0.41060342  0.65653029  0.40390335     0.29410
C1192       C  0.38970882  0.67772338  0.38222380    -0.21400
C1193       C  0.35370474  0.67038714  0.37753087    -0.09460
C1194       C  0.33893967  0.64135712  0.39550888     0.29420
F1195       F  0.30445932  0.63274728  0.39173632    -0.19980
H1196       H  0.34781658  0.59815297  0.43069269     0.17780
H1197       H  0.40189429  0.69985509  0.36894334     0.17790
F1198       F  0.44515588  0.66477052  0.40784797    -0.19970
C1199       C  0.58806614  0.34766645  0.60015550    -0.21400
C1200       C  0.60412560  0.37345581  0.57898038    -0.09450
C1201       C  0.64099605  0.37714366  0.58011806     0.29410
C1202       C  0.66111568  0.35562208  0.60215115    -0.21400
C1203       C  0.64510171  0.32979570  0.62337996    -0.09460
C1204       C  0.60820354  0.32592419  0.62198816     0.29420
F1205       F  0.59133868  0.30155462  0.64203799    -0.19980
H1206       H  0.55975564  0.34422148  0.59979462     0.17780
H1207       H  0.68938661  0.35933555  0.60261169     0.17790
F1208       F  0.65766312  0.40216854  0.56071655    -0.19970
C1209       C  0.39343763  0.37424263  0.67814464    -0.21400
C1210       C  0.37508176  0.34737472  0.66038738    -0.09450
C1211       C  0.37874095  0.34475719  0.62351911     0.29410
C1212       C  0.40090607  0.36769320  0.60530839    -0.21400
C1213       C  0.41925251  0.39414242  0.62308094    -0.09460
C1214       C  0.41525220  0.39761755  0.65960168     0.29420
F1215       F  0.43323860  0.42280535  0.67736812    -0.19980
H1216       H  0.39117893  0.37699251  0.70641596     0.17780
H1217       H  0.40352429  0.36502621  0.57703558     0.17790
F1218       F  0.36075330  0.32027924  0.60477526    -0.19970
C1219       C  0.57704185  0.64211976  0.37477598    -0.21400
C1220       C  0.57912187  0.60520555  0.37350084    -0.09450
C1221       C  0.60271290  0.58954009  0.34955180     0.29410
C1222       C  0.62381077  0.61044221  0.32780447    -0.21400
C1223       C  0.62219541  0.64735341  0.32951130    -0.09460
C1224       C  0.59836616  0.66303668  0.35320537     0.29420
F1225       F  0.59543671  0.69856387  0.35556531    -0.19980
H1226       H  0.55915098  0.65495437  0.39286768     0.17780
H1227       H  0.64184551  0.59757301  0.30987939     0.17790
F1228       F  0.60543453  0.55401461  0.34688226    -0.19970
C1229       C  0.34362630  0.59447233  0.59097945    -0.21400
C1230       C  0.37418436  0.57973744  0.60558312    -0.09450
C1231       C  0.38247946  0.58682333  0.64089535     0.29410
C1232       C  0.36064431  0.60845334  0.66104454    -0.21400
C1233       C  0.32997743  0.62333131  0.64654328    -0.09460
C1234       C  0.32151962  0.61580213  0.61120427     0.29420
F1235       F  0.29190779  0.62884786  0.59604820    -0.19980
H1236       H  0.33664023  0.58916633  0.56387264     0.17780
H1237       H  0.36805707  0.61382589  0.68801387     0.17790
F1238       F  0.41235584  0.57388167  0.65562388    -0.19970
C1239       C  0.63485237  0.43333593  0.36068572    -0.21400
C1240       C  0.62375347  0.42060127  0.39370388    -0.09450
C1241       C  0.63269413  0.38589254  0.40352100     0.29410
C1242       C  0.65183657  0.36450723  0.38048712    -0.21400
C1243       C  0.66199225  0.37718950  0.34736680    -0.09460
C1244       C  0.65374897  0.41181174  0.33767583     0.29420
F1245       F  0.66406850  0.42477297  0.30597610    -0.19980
H1246       H  0.62865557  0.45994589  0.35248783     0.17780
H1247       H  0.65797651  0.33770591  0.38811675     0.17790
F1248       F  0.62188312  0.37209606  0.43470244    -0.19970
loop_ 
_geom_bond_atom_site_label_1 
_geom_bond_atom_site_label_2 
_geom_bond_distance 
_geom_bond_site_symmetry_2 
_ccdc_geom_bond_type 
O1           Mg3   2.135       .  S
O1           Mg9   2.152       .  S
O1           C36   1.237       .  S
C2           O15   1.236       .  S
C2           O39   1.270       .  A
C2           H41   1.081       .  S
Mg3          O32   2.156       .  S
Mg3          O47   2.312       .  S
Mg3          O43   2.262       .  S
Mg3          O14   2.295       .  S
O4          Mg46   2.146       .  S
O4          Mg29   2.133       .  S
O4           C25   1.237       .  S
O5           C36   1.271       .  A
O5          Mg29   2.297       .  S
C6            O8   1.273       .  A
C6           O20   1.275       .  A
C6         C1190   1.479       .  S
O7           C35   1.270       .  A
O7           Mg9   2.292       .  S
O8          Mg40   2.265       .  S
Mg9          O15   2.127       .  S
Mg9          O23   2.251       .  S
Mg9          O11   2.301       .  S
C10          O48   1.273       .  A
C10          O16   1.274       .  A
C10        C1220   1.483       .  S
O11          C18   1.276       .  A
H12          C25   1.081       .  S
C13          O27   1.237       .  S
C13          O28   1.270       .  A
C13          H38   1.081       .  S
O14          C37   1.270       .  A
O15         Mg29   2.144       .  S
O16         Mg46   2.293       .  S
C17          O30   1.273       .  A
C17          O22   1.276       .  A
C17        C1240   1.483       .  S
C18          O45   1.272       .  A
C18        C1200   1.481       .  S
Mg19         O26   2.135       .  S
Mg19         O27   2.153       .  S
Mg19         O20   2.299       .  S
Mg19         O21   2.296       .  S
Mg19         O48   2.266       .  S
O21          C25   1.270       .  A
O22         Mg29   2.309       .  S
O23          C42   1.271       .  A
O24          C44   1.276       .  A
O24         Mg40   2.301       .  S
O26         Mg40   2.156       .  S
O26          C37   1.237       .  S
O27         Mg46   2.132       .  S
O28         Mg40   2.293       .  S
Mg29         O45   2.260       .  S
O30         Mg46   2.258       .  S
H31          C36   1.081       .  S
O32         Mg40   2.132       .  S
O32          C35   1.237       .  S
H33          C35   1.081       .  S
H34          C37   1.081       .  S
O39         Mg46   2.295       .  S
C42          O47   1.276       .  A
C42        C1213   1.467       .  S
O43          C44   1.273       .  A
C44        C1230   1.476       .  S
O49         Mg51   2.139   1_655  S
O49         Mg57   2.151       .  S
O49          C84   1.237       .  S
C50          O63   1.237       .  S
C50          O87   1.271       .  A
C50          H89   1.081       .  S
Mg51         O80   2.154       .  S
Mg51         O95   2.306       .  S
Mg51         O91   2.268       .  S
Mg51         O62   2.295       .  S
O52         Mg94   2.143       .  S
O52         Mg77   2.133       .  S
O52          C73   1.237       .  S
O53          C84   1.271       .  A
O53         Mg77   2.300       .  S
C54          O56   1.274       .  A
C54          O68   1.275       .  A
C54        C1150   1.487       .  S
O55          C83   1.271       .  A
O55         Mg57   2.298   1_455  S
O56         Mg88   2.272       .  S
Mg57         O63   2.138       .  S
Mg57         O71   2.262   1_655  S
Mg57         O59   2.318       .  S
C58          O96   1.272       .  A
C58          O64   1.276       .  A
C58        C1140   1.485       .  S
O59          C66   1.277       .  A
H60          C73   1.081       .  S
C61          O75   1.237       .  S
C61          O76   1.271       .  A
C61          H86   1.081       .  S
O62          C85   1.270       .  A
O63         Mg77   2.140       .  S
O64         Mg94   2.302       .  S
C65          O78   1.272       .  A
C65          O70   1.274       .  A
C65        C1160   1.467       .  S
C66          O93   1.272       .  A
C66        C1180   1.486       .  S
Mg67         O74   2.133   1_655  S
Mg67         O75   2.152   1_655  S
Mg67         O68   2.298   1_655  S
Mg67         O69   2.297       .  S
Mg67         O96   2.261       .  S
O69          C73   1.270       .  A
O70         Mg77   2.307       .  S
O71          C90   1.273       .  A
O72          C92   1.276       .  A
O72         Mg88   2.307       .  S
O74         Mg88   2.150       .  S
O74          C85   1.237       .  S
O75         Mg94   2.137   1_455  S
O76         Mg88   2.298       .  S
Mg77         O93   2.253       .  S
O78         Mg94   2.268       .  S
H79          C84   1.081       .  S
O80         Mg88   2.138       .  S
O80          C83   1.237       .  S
H81          C83   1.081       .  S
H82          C85   1.081       .  S
O87         Mg94   2.303       .  S
C90          O95   1.276       .  A
C90        C1133   1.483       .  S
O91          C92   1.274       .  A
C92        C1173   1.487       .  S
O97         Mg99   2.137   1_556  S
O97        Mg105   2.155   1_556  S
O97         C132   1.237       .  S
C98         O111   1.238       .  S
C98         O135   1.271       .  A
C98         H137   1.078       .  S
Mg99        O128   2.144       .  S
Mg99        O143   2.297       .  S
Mg99        O139   2.268       .  S
Mg99        O110   2.301       .  S
O100       Mg142   2.149       .  S
O100       Mg125   2.124       .  S
O100        C121   1.236       .  S
O101        C132   1.270       .  A
O101       Mg125   2.297       .  S
C102        O104   1.273       .  A
C102        O116   1.274       .  A
C102       C1093   1.474       .  S
O103        C131   1.271       .  A
O103       Mg105   2.301       .  S
O104       Mg136   2.264       .  S
Mg105       O111   2.138   1_554  S
Mg105       O119   2.267       .  S
Mg105       O107   2.323   1_554  S
C106        O144   1.273       .  A
C106        O112   1.276       .  A
C106       C1110   1.486       .  S
O107        C114   1.278       .  A
H108        C121   1.081       .  S
C109        O123   1.237       .  S
C109        O124   1.270       .  A
C109        H134   1.081       .  S
O110        C133   1.271       .  A
O111       Mg125   2.149       .  S
O112       Mg142   2.303       .  S
C113        O126   1.273       .  A
C113        O118   1.276       .  A
C113       C1073   1.480       .  S
C114        O141   1.271       .  A
C114       C1123   1.482       .  S
Mg115       O122   2.135   1_556  S
Mg115       O123   2.156   1_556  S
Mg115       O116   2.294   1_556  S
Mg115       O117   2.290       .  S
Mg115       O144   2.265       .  S
O117        C121   1.269       .  A
O118       Mg125   2.302       .  S
O119        C138   1.274       .  A
O120        C140   1.275       .  A
O120       Mg136   2.310       .  S
O122       Mg136   2.151       .  S
O122        C133   1.237       .  S
O123       Mg142   2.132   1_554  S
O124       Mg136   2.293       .  S
Mg125       O141   2.247       .  S
O126       Mg142   2.264       .  S
H127        C132   1.081       .  S
O128       Mg136   2.141       .  S
O128        C131   1.237       .  S
H129        C131   1.081       .  S
H130        C133   1.081       .  S
O135       Mg142   2.295       .  S
C138        O143   1.275       .  A
C138       C1083   1.479       .  S
O139        C140   1.272       .  A
C140       C1100   1.472       .  S
O145       Mg147   2.131   1_545  S
O145       Mg153   2.140   1_545  S
O145        C180   1.238       .  S
C146        O159   1.237       .  S
C146        O183   1.271       .  A
C146        H185   1.081   1_545  S
Mg147       O176   2.144       .  S
Mg147       O191   2.317       .  S
Mg147       O187   2.248       .  S
Mg147       O158   2.300       .  S
O148       Mg190   2.143       .  S
O148       Mg173   2.137       .  S
O148        C169   1.237       .  S
O149        C180   1.272       .  A
O149       Mg173   2.302       .  S
C150        O152   1.271       .  A
C150        O164   1.277       .  A
C150       C1043   1.483       .  S
O151        C179   1.270       .  A
O151       Mg153   2.295       .  S
O152       Mg184   2.250       .  S
Mg153       O159   2.135   1_565  S
Mg153       O167   2.248       .  S
Mg153       O155   2.308   1_565  S
C154        O192   1.272       .  A
C154        O160   1.277       .  A
C154       C1033   1.484       .  S
O155        C162   1.274       .  A
H156        C169   1.081       .  S
C157        O171   1.238   1_565  S
C157        O172   1.272       .  A
C157        H182   1.081       .  S
O158        C181   1.271       .  A
O159       Mg173   2.134       .  S
O160       Mg190   2.319       .  S
C161        O174   1.274       .  A
C161        O166   1.275       .  A
C161       C1053   1.479       .  S
C162        O189   1.271       .  A
C162       C1010   1.473       .  S
Mg163       O170   2.138   1_545  S
Mg163       O171   2.143       .  S
Mg163       O164   2.322   1_545  S
Mg163       O165   2.301       .  S
Mg163       O192   2.249       .  S
O165        C169   1.271       .  A
O166       Mg173   2.304       .  S
O167        C186   1.271       .  A
O168        C188   1.277       .  A
O168       Mg184   2.321       .  S
O170       Mg184   2.139       .  S
O170        C181   1.237       .  S
O171       Mg190   2.148       .  S
O172       Mg184   2.305       .  S
Mg173       O189   2.257       .  S
O174       Mg190   2.277       .  S
H175        C180   1.081       .  S
O176       Mg184   2.131       .  S
O176        C179   1.237       .  S
H177        C179   1.081       .  S
H178        C181   1.081   1_545  S
O183       Mg190   2.303       .  S
C186        O191   1.276       .  A
C186       C1060   1.485       .  S
O187        C188   1.272       .  A
C188       C1023   1.486       .  S
O193       Mg195   2.139   1_554  S
O193       Mg201   2.150   1_554  S
O193        C228   1.237       .  S
C194        O207   1.236       .  S
C194        O231   1.270       .  A
C194        H233   1.081       .  S
Mg195       O224   2.152       .  S
Mg195       O239   2.321       .  S
Mg195       O235   2.267   1_455  S
Mg195       O206   2.299   1_455  S
O196       Mg238   2.152   1_655  S
O196       Mg221   2.127   1_655  S
O196        C217   1.236       .  S
O197        C228   1.271       .  A
O197       Mg221   2.297       .  S
C198        O200   1.274       .  A
C198        O212   1.274       .  A
C198        C993   1.487       .  S
O199        C227   1.270       .  A
O199       Mg201   2.297       .  S
O200       Mg232   2.272       .  S
Mg201       O207   2.130   1_556  S
Mg201       O215   2.251       .  S
Mg201       O203   2.300   1_556  S
C202        O240   1.273       .  A
C202        O208   1.275       .  A
C202        C980   1.475       .  S
O203        C210   1.275       .  A
H204        C217   1.081       .  S
C205        O219   1.237       .  S
C205        O220   1.270       .  A
C205        H230   1.081       .  S
O206        C229   1.271       .  A
O207       Mg221   2.151       .  S
O208       Mg238   2.297   1_655  S
C209        O222   1.273       .  A
C209        O214   1.276       .  A
C209        C953   1.486       .  S
C210        O237   1.272       .  A
C210        C960   1.475       .  S
Mg211       O218   2.137   1_554  S
Mg211       O219   2.156   1_554  S
Mg211       O212   2.296   1_554  S
Mg211       O213   2.289       .  S
Mg211       O240   2.263       .  S
O213        C217   1.269       .  A
O214       Mg221   2.304       .  S
O215        C234   1.272       .  A
O216        C236   1.276       .  A
O216       Mg232   2.303       .  S
O218       Mg232   2.150       .  S
O218        C229   1.237       .  S
O219       Mg238   2.133   1_656  S
O220       Mg232   2.296       .  S
Mg221       O237   2.258       .  S
O222       Mg238   2.264       .  S
H223        C228   1.081       .  S
O224       Mg232   2.138   1_455  S
O224        C227   1.237       .  S
H225        C227   1.081       .  S
H226        C229   1.081       .  S
O231       Mg238   2.293       .  S
C234        O239   1.277       .  A
C234        C970   1.487       .  S
O235        C236   1.274       .  A
C236       C1003   1.484       .  S
O241       Mg243   2.140   1_445  S
O241       Mg249   2.153   1_455  S
O241        C276   1.238       .  S
C242        O255   1.236       .  S
C242        O279   1.269       .  A
C242        H281   1.081       .  S
Mg243       O272   2.155   1_565  S
Mg243       O287   2.313   1_565  S
Mg243       O283   2.269       .  S
Mg243       O254   2.298       .  S
O244       Mg286   2.153       .  S
O244       Mg269   2.136   1_565  S
O244        C265   1.237       .  S
O245        C276   1.272       .  A
O245       Mg269   2.300       .  S
C246        O248   1.273       .  A
C246        O260   1.276       .  A
C246        C913   1.486       .  S
O247        C275   1.270       .  A
O247       Mg249   2.293       .  S
O248       Mg280   2.267       .  S
Mg249       O255   2.128   1_655  S
Mg249       O263   2.252       .  S
Mg249       O251   2.299   1_655  S
C250        O288   1.272       .  A
C250        O256   1.276       .  A
C250        C930   1.485       .  S
O251        C258   1.276       .  A
H252        C265   1.081       .  S
C253        O267   1.237       .  S
C253        O268   1.270       .  A
C253        H278   1.081       .  S
O254        C277   1.271       .  A
O255       Mg269   2.148       .  S
O256       Mg286   2.302       .  S
C257        O270   1.272       .  A
C257        O262   1.277       .  A
C257        C890   1.476       .  S
C258        O285   1.274       .  A
C258        C900   1.486       .  S
Mg259       O266   2.135   1_455  S
Mg259       O267   2.146   1_455  S
Mg259       O260   2.300   1_455  S
Mg259       O261   2.296       .  S
Mg259       O288   2.264       .  S
O261        C265   1.271       .  A
O262       Mg269   2.317       .  S
O263        C282   1.272       .  A
O264        C284   1.276       .  A
O264       Mg280   2.295       .  S
O266       Mg280   2.151       .  S
O266        C277   1.237       .  S
O267       Mg286   2.128   1_655  S
O268       Mg280   2.294       .  S
Mg269       O285   2.269       .  S
O270       Mg286   2.249   1_545  S
H271        C276   1.081       .  S
O272       Mg280   2.134   1_545  S
O272        C275   1.237       .  S
H273        C275   1.081       .  S
H274        C277   1.081       .  S
O279       Mg286   2.291   1_545  S
C282        O287   1.276       .  A
C282        C920   1.470       .  S
O283        C284   1.274       .  A
C284        C940   1.485       .  S
O289       Mg291   2.146   1_544  S
O289       Mg297   2.151   1_545  S
O289        C324   1.237       .  S
C290        O303   1.237       .  S
C290        O327   1.270       .  A
C290        H329   1.081       .  S
Mg291       O320   2.152   1_556  S
Mg291       O335   2.304   1_556  S
Mg291       O331   2.277       .  S
Mg291       O302   2.294       .  S
O292       Mg334   2.148   1_556  S
O292       Mg317   2.138   1_556  S
O292        C313   1.237       .  S
O293        C324   1.272       .  A
O293       Mg317   2.303       .  S
C294        O296   1.274       .  A
C294        O308   1.275       .  A
C294        C863   1.486       .  S
O295        C323   1.271       .  A
O295       Mg297   2.300       .  S
O296       Mg328   2.270       .  S
Mg297       O303   2.136   1_565  S
Mg297       O311   2.267       .  S
Mg297       O299   2.309   1_565  S
C298        O336   1.272       .  A
C298        O304   1.275       .  A
C298        C870   1.482       .  S
O299        C306   1.277       .  A
H300        C313   1.081       .  S
C301        O315   1.236       .  S
C301        O316   1.269       .  A
C301        H326   1.081       .  S
O302        C325   1.270       .  A
O303       Mg317   2.152       .  S
O304       Mg334   2.297   1_556  S
C305        O318   1.271       .  A
C305        O310   1.278       .  A
C305        C830   1.484       .  S
C306        O333   1.274       .  A
C306        C843   1.485       .  S
Mg307       O314   2.129   1_545  S
Mg307       O315   2.149   1_545  S
Mg307       O308   2.301   1_545  S
Mg307       O309   2.297       .  S
Mg307       O336   2.260       .  S
O309        C313   1.271       .  A
O310       Mg317   2.329       .  S
O311        C330   1.273       .  A
O312        C332   1.275       .  A
O312       Mg328   2.296       .  S
O314       Mg328   2.152       .  S
O314        C325   1.237       .  S
O315       Mg334   2.127   1_566  S
O316       Mg328   2.292       .  S
Mg317       O333   2.269       .  S
O318       Mg334   2.245       .  S
H319        C324   1.081       .  S
O320       Mg328   2.138   1_554  S
O320        C323   1.237       .  S
H321        C323   1.081       .  S
H322        C325   1.081       .  S
O327       Mg334   2.295       .  S
C330        O335   1.276       .  A
C330        C850   1.486       .  S
O331        C332   1.275       .  A
C332        C880   1.488       .  S
O337       Mg339   2.132   1_546  S
O337       Mg345   2.160   1_545  S
O337        C372   1.237       .  S
C338        O351   1.238       .  S
C338        O375   1.271       .  A
C338        H377   1.081       .  S
Mg339       O368   2.155   1_554  S
Mg339       O383   2.295   1_554  S
Mg339       O379   2.265       .  S
Mg339       O350   2.290       .  S
O340       Mg382   2.150   1_554  S
O340       Mg365   2.128   1_654  S
O340        C361   1.236       .  S
O341        C372   1.270       .  A
O341       Mg365   2.292       .  S
C342        O344   1.272       .  A
C342        O356   1.274       .  A
C342        C820   1.469       .  S
O343        C371   1.270       .  A
O343       Mg345   2.292       .  S
O344       Mg376   2.262       .  S
Mg345       O351   2.140   1_465  S
Mg345       O359   2.266       .  S
Mg345       O347   2.311   1_565  S
C346        O384   1.273       .  A
C346        O352   1.277       .  A
C346        C770   1.475       .  S
O347        C354   1.275       .  A
H348        C361   1.081       .  S
C349        O363   1.238       .  S
C349        O364   1.271       .  A
C349        H374   1.081       .  S
O350        C373   1.269       .  A
O351       Mg365   2.153   1_655  S
O352       Mg382   2.318   1_554  S
C353        O366   1.274       .  A
C353        O358   1.275       .  A
C353        C813   1.482       .  S
C354        O381   1.272       .  A
C354        C790   1.467       .  S
Mg355       O362   2.128   1_655  S
Mg355       O363   2.156       .  S
Mg355       O356   2.299       .  S
Mg355       O357   2.291   1_565  S
Mg355       O384   2.250   1_565  S
O357        C361   1.269       .  A
O358       Mg365   2.298   1_655  S
O359        C378   1.273       .  A
O360        C380   1.276       .  A
O360       Mg376   2.308   1_455  S
O362       Mg376   2.153   1_455  S
O362        C373   1.236       .  S
O363       Mg382   2.137   1_564  S
O364       Mg376   2.294       .  S
Mg365       O381   2.253       .  S
O366       Mg382   2.268       .  S
H367        C372   1.081       .  S
O368       Mg376   2.131   1_456  S
O368        C371   1.237       .  S
H369        C371   1.081       .  S
H370        C373   1.081       .  S
O375       Mg382   2.300       .  S
C378        O383   1.275       .  A
C378        C803   1.471       .  S
O379        C380   1.274       .  A
C380        C780   1.482       .  S
O385       Mg387   2.132       .  S
O385       Mg393   2.150       .  S
O385        C420   1.237       .  S
C386        O399   1.236       .  S
C386        O423   1.269       .  A
C386        H425   1.081       .  S
Mg387       O416   2.156       .  S
Mg387       O431   2.322       .  S
Mg387       O427   2.262       .  S
Mg387       O398   2.301       .  S
O388       Mg430   2.150       .  S
O388       Mg413   2.130       .  S
O388        C409   1.237       .  S
O389        C420   1.270       .  A
O389       Mg413   2.294       .  S
C390        O392   1.272       .  A
C390        O404   1.275       .  A
C390        C823   1.479       .  S
O391        C419   1.270       .  A
O391       Mg393   2.292       .  S
O392       Mg424   2.265       .  S
Mg393       O399   2.123       .  S
Mg393       O407   2.242       .  S
Mg393       O395   2.298       .  S
C394        O432   1.273       .  A
C394        O400   1.274       .  A
C394        C983   1.485       .  S
O395        C402   1.275       .  A
H396        C409   1.081       .  S
C397        O411   1.237       .  S
C397        O412   1.271       .  A
C397        H422   1.081       .  S
O398        C421   1.271       .  A
O399       Mg413   2.145       .  S
O400       Mg430   2.294       .  S
C401        O414   1.273       .  A
C401        O406   1.275       .  A
C401       C1090   1.484       .  S
C402        O429   1.273       .  A
C402       C1223   1.483       .  S
Mg403       O410   2.143       .  S
Mg403       O411   2.148       .  S
Mg403       O404   2.304       .  S
Mg403       O405   2.297       .  S
Mg403       O432   2.269       .  S
O405        C409   1.270       .  A
O406       Mg413   2.296       .  S
O407        C426   1.271       .  A
O408        C428   1.276       .  A
O408       Mg424   2.301       .  S
O410       Mg424   2.148       .  S
O410        C421   1.237       .  S
O411       Mg430   2.137       .  S
O412       Mg424   2.302       .  S
Mg413       O429   2.260       .  S
O414       Mg430   2.267       .  S
H415        C420   1.081       .  S
O416       Mg424   2.135       .  S
O416        C419   1.237       .  S
H417        C419   1.081       .  S
H418        C421   1.081       .  S
O423       Mg430   2.292       .  S
C426        O431   1.277       .  A
C426       C1020   1.473       .  S
O427        C428   1.273       .  A
C428        C943   1.479       .  S
O433       Mg435   2.144       .  S
O433       Mg441   2.145       .  S
O433        C468   1.237       .  S
C434        O447   1.237       .  S
C434        O471   1.270       .  A
C434        H473   1.081       .  S
Mg435       O464   2.148       .  S
Mg435       O479   2.306       .  S
Mg435       O475   2.268       .  S
Mg435       O446   2.295       .  S
O436       Mg478   2.150       .  S
O436       Mg461   2.133       .  S
O436        C457   1.237       .  S
O437        C468   1.271       .  A
O437       Mg461   2.303       .  S
C438        O440   1.274       .  A
C438        O452   1.275       .  A
C438        C810   1.485       .  S
O439        C467   1.271       .  A
O439       Mg441   2.303       .  S
O440       Mg472   2.268       .  S
Mg441       O447   2.137       .  S
Mg441       O455   2.270       .  S
Mg441       O443   2.304       .  S
C442        O480   1.273       .  A
C442        O448   1.275       .  A
C442        C873   1.484       .  S
O443        C450   1.276       .  A
H444        C457   1.081       .  S
C445        O459   1.236       .  S
C445        O460   1.269       .  A
C445        H470   1.081       .  S
O446        C469   1.270       .  A
O447       Mg461   2.154       .  S
O448       Mg478   2.297       .  S
C449        O462   1.271       .  A
C449        O454   1.277       .  A
C449       C1030   1.475       .  S
C450        O477   1.273       .  A
C450       C1203   1.485       .  S
Mg451       O458   2.132       .  S
Mg451       O459   2.146       .  S
Mg451       O452   2.297       .  S
Mg451       O453   2.295       .  S
Mg451       O480   2.262       .  S
O453        C457   1.270       .  A
O454       Mg461   2.319       .  S
O455        C474   1.272       .  A
O456        C476   1.275       .  A
O456       Mg472   2.299       .  S
O458       Mg472   2.154       .  S
O458        C469   1.237       .  S
O459       Mg478   2.123       .  S
O460       Mg472   2.290       .  S
Mg461       O477   2.261       .  S
O462       Mg478   2.244       .  S
H463        C468   1.081       .  S
O464       Mg472   2.138       .  S
O464        C467   1.237       .  S
H465        C467   1.081       .  S
H466        C469   1.081       .  S
O471       Mg478   2.294       .  S
C474        O479   1.274       .  A
C474       C1163   1.467       .  S
O475        C476   1.273       .  A
C476       C1000   1.485       .  S
O481       Mg483   2.132       .  S
O481       Mg489   2.154       .  S
O481        C516   1.237       .  S
C482        O495   1.237       .  S
C482        O519   1.270       .  A
C482        H521   1.081       .  S
Mg483       O512   2.152       .  S
Mg483       O527   2.305       .  S
Mg483       O523   2.261       .  S
Mg483       O494   2.298       .  S
O484       Mg526   2.151       .  S
O484       Mg509   2.133       .  S
O484        C505   1.236       .  S
O485        C516   1.270       .  A
O485       Mg509   2.295       .  S
C486        O488   1.273       .  A
C486        O500   1.276       .  A
C486       C1070   1.487       .  S
O487        C515   1.270       .  A
O487       Mg489   2.295       .  S
O488       Mg520   2.266       .  S
Mg489       O495   2.134       .  S
Mg489       O503   2.264       .  S
Mg489       O491   2.305       .  S
C490        O528   1.274       .  A
C490        O496   1.276       .  A
C490        C883   1.482       .  S
O491        C498   1.276       .  A
H492        C505   1.081       .  S
C493        O507   1.237       .  S
C493        O508   1.271       .  A
C493        H518   1.081       .  S
O494        C517   1.270       .  A
O495       Mg509   2.148       .  S
O496       Mg526   2.305       .  S
C497        O510   1.273       .  A
C497        O502   1.275       .  A
C497        C800   1.482       .  S
C498        O525   1.272       .  A
C498        C933   1.484       .  S
Mg499       O506   2.137       .  S
Mg499       O507   2.153       .  S
Mg499       O500   2.304       .  S
Mg499       O501   2.294       .  S
Mg499       O528   2.266       .  S
O501        C505   1.270       .  A
O502       Mg509   2.296       .  S
O503        C522   1.273       .  A
O504        C524   1.276       .  A
O504       Mg520   2.304       .  S
O506       Mg520   2.149       .  S
O506        C517   1.237       .  S
O507       Mg526   2.136       .  S
O508       Mg520   2.297       .  S
Mg509       O525   2.261       .  S
O510       Mg526   2.268       .  S
H511        C516   1.081       .  S
O512       Mg520   2.137       .  S
O512        C515   1.237       .  S
H513        C515   1.081       .  S
H514        C517   1.081       .  S
O519       Mg526   2.297       .  S
C522        O527   1.276       .  A
C522       C1153   1.481       .  S
O523        C524   1.272       .  A
C524       C1233   1.485       .  S
O529       Mg531   2.139       .  S
O529       Mg537   2.138       .  S
O529        C564   1.238       .  S
C530        O543   1.236       .  S
C530        O567   1.271       .  A
C530        H569   1.081       .  S
Mg531       O560   2.147       .  S
Mg531       O575   2.318       .  S
Mg531       O571   2.250       .  S
Mg531       O542   2.297       .  S
O532       Mg574   2.145       .  S
O532       Mg557   2.139       .  S
O532        C553   1.238       .  S
O533        C564   1.272       .  A
O533       Mg557   2.305       .  S
C534        O536   1.273       .  A
C534        O548   1.275       .  A
C534       C1050   1.476       .  S
O535        C563   1.272       .  A
O535       Mg537   2.300       .  S
O536       Mg568   2.272       .  S
Mg537       O543   2.133       .  S
Mg537       O551   2.245       .  S
Mg537       O539   2.315       .  S
C538        O576   1.270       .  A
C538        O544   1.276       .  A
C538       C1210   1.485       .  S
O539        C546   1.275       .  A
H540        C553   1.081       .  S
C541        O555   1.238       .  S
C541        O556   1.272       .  A
C541        H566   1.081       .  S
O542        C565   1.270       .  A
O543       Mg557   2.134       .  S
O544       Mg574   2.315       .  S
C545        O558   1.273       .  A
C545        O550   1.275       .  A
C545       C1120   1.479       .  S
C546        O573   1.271       .  A
C546        C973   1.471       .  S
Mg547       O554   2.131       .  S
Mg547       O555   2.139       .  S
Mg547       O548   2.311       .  S
Mg547       O549   2.302       .  S
Mg547       O576   2.246       .  S
O549        C553   1.272       .  A
O550       Mg557   2.315       .  S
O551        C570   1.271       .  A
O552        C572   1.277       .  A
O552       Mg568   2.319       .  S
O554       Mg568   2.137       .  S
O554        C565   1.237       .  S
O555       Mg574   2.140       .  S
O556       Mg568   2.306       .  S
Mg557       O573   2.259       .  S
O558       Mg574   2.257       .  S
H559        C564   1.081       .  S
O560       Mg568   2.140       .  S
O560        C563   1.238       .  S
H561        C563   1.081       .  S
H562        C565   1.081       .  S
O567       Mg574   2.300       .  S
C570        O575   1.276       .  A
C570        C793   1.486       .  S
O571        C572   1.272       .  A
C572        C893   1.484       .  S
O577       Mg579   2.136       .  S
O577       Mg585   2.153       .  S
O577        C612   1.237       .  S
C578        O591   1.238       .  S
C578        O615   1.271       .  A
C578        H617   1.081       .  S
Mg579       O608   2.150       .  S
Mg579       O623   2.299       .  S
Mg579       O619   2.267       .  S
Mg579       O590   2.295       .  S
O580       Mg622   2.149       .  S
O580       Mg605   2.130       .  S
O580        C601   1.236       .  S
O581        C612   1.270       .  A
O581       Mg605   2.295       .  S
C582        O584   1.273       .  A
C582        O596   1.276       .  A
C582        C950   1.477       .  S
O583        C611   1.271       .  A
O583       Mg585   2.299       .  S
O584       Mg616   2.262       .  S
Mg585       O591   2.138       .  S
Mg585       O599   2.270       .  S
Mg585       O587   2.314       .  S
C586        O624   1.274       .  A
C586        O592   1.276       .  A
C586        C783   1.487       .  S
O587        C594   1.276       .  A
H588        C601   1.081       .  S
C589        O603   1.236       .  S
C589        O604   1.270       .  A
C589        H614   1.081       .  S
O590        C613   1.270       .  A
O591       Mg605   2.156       .  S
O592       Mg622   2.306       .  S
C593        O606   1.272       .  A
C593        O598   1.276       .  A
C593        C853   1.478       .  S
C594        O621   1.272       .  A
C594       C1063   1.466       .  S
Mg595       O602   2.135       .  S
Mg595       O603   2.152       .  S
Mg595       O596   2.302       .  S
Mg595       O597   2.294       .  S
Mg595       O624   2.267       .  S
O597        C601   1.270       .  A
O598       Mg605   2.305       .  S
O599        C618   1.274       .  A
O600        C620   1.276       .  A
O600       Mg616   2.305       .  S
O602       Mg616   2.156       .  S
O602        C613   1.237       .  S
O603       Mg622   2.131       .  S
O604       Mg616   2.292       .  S
Mg605       O621   2.254       .  S
O606       Mg622   2.261       .  S
H607        C612   1.081       .  S
O608       Mg616   2.136       .  S
O608        C611   1.237       .  S
H609        C611   1.081       .  S
H610        C613   1.081       .  S
O615       Mg622   2.296       .  S
C618        O623   1.275       .  A
C618       C1193   1.487       .  S
O619        C620   1.273       .  A
C620       C1170   1.486       .  S
O625       Mg627   2.141       .  S
O625       Mg633   2.151       .  S
O625        C660   1.237       .  S
C626        O639   1.237       .  S
C626        O663   1.271       .  A
C626        H665   1.081       .  S
Mg627       O656   2.151       .  S
Mg627       O671   2.306       .  S
Mg627       O667   2.264       .  S
Mg627       O638   2.299       .  S
O628       Mg670   2.145       .  S
O628       Mg653   2.138       .  S
O628        C649   1.237       .  S
O629        C660   1.272       .  A
O629       Mg653   2.303       .  S
C630        O632   1.271       .  A
C630        O644   1.274       .  A
C630       C1183   1.468       .  S
O631        C659   1.271       .  A
O631       Mg633   2.298       .  S
O632       Mg664   2.265       .  S
Mg633       O639   2.140       .  S
Mg633       O647   2.260       .  S
Mg633       O635   2.322       .  S
C634        O672   1.270       .  A
C634        O640   1.277       .  A
C634        C923   1.487       .  S
O635        C642   1.276       .  A
H636        C649   1.081       .  S
C637        O651   1.238       .  S
C637        O652   1.272       .  A
C637        H662   1.081       .  S
O638        C661   1.270       .  A
O639       Mg653   2.138       .  S
O640       Mg670   2.322       .  S
C641        O654   1.271       .  A
C641        O646   1.277       .  A
C641        C773   1.485       .  S
C642        O669   1.273       .  A
C642        C833   1.480       .  S
Mg643       O650   2.131       .  S
Mg643       O651   2.138       .  S
Mg643       O644   2.307       .  S
Mg643       O645   2.299       .  S
Mg643       O672   2.243       .  S
O645        C649   1.271       .  A
O646       Mg653   2.323       .  S
O647        C666   1.271       .  A
O648        C668   1.274       .  A
O648       Mg664   2.305       .  S
O650       Mg664   2.136       .  S
O650        C661   1.236       .  S
O651       Mg670   2.134       .  S
O652       Mg664   2.302       .  S
Mg653       O669   2.256       .  S
O654       Mg670   2.247       .  S
H655        C660   1.081       .  S
O656       Mg664   2.142       .  S
O656        C659   1.237       .  S
H657        C659   1.081       .  S
H658        C661   1.081       .  S
O663       Mg670   2.301       .  S
C666        O671   1.274       .  A
C666       C1103   1.467       .  S
O667        C668   1.272       .  A
C668       C1243   1.465       .  S
O673       Mg675   2.140       .  S
O673       Mg681   2.151       .  S
O673        C708   1.237       .  S
C674        O687   1.237       .  S
C674        O711   1.270       .  A
C674        H713   1.081       .  S
Mg675       O704   2.150       .  S
Mg675       O719   2.295       .  S
Mg675       O715   2.267       .  S
Mg675       O686   2.294       .  S
O676       Mg718   2.148       .  S
O676       Mg701   2.141       .  S
O676        C697   1.237       .  S
O677        C708   1.271       .  A
O677       Mg701   2.301       .  S
C678        O680   1.273       .  A
C678        O692   1.276       .  A
C678       C1130   1.486       .  S
O679        C707   1.271       .  A
O679       Mg681   2.298       .  S
O680       Mg712   2.265       .  S
Mg681       O687   2.136       .  S
Mg681       O695   2.271       .  S
Mg681       O683   2.308       .  S
C682        O720   1.272       .  A
C682        O688   1.275       .  A
C682        C903   1.482       .  S
O683        C690   1.277       .  A
H684        C697   1.081       .  S
C685        O699   1.236       .  S
C685        O700   1.269       .  A
C685        H710   1.081       .  S
O686        C709   1.270       .  A
O687       Mg701   2.151       .  S
O688       Mg718   2.298       .  S
C689        O702   1.270       .  A
C689        O694   1.278       .  A
C689       C1013   1.484       .  S
C690        O717   1.274       .  A
C690        C840   1.487       .  S
Mg691       O698   2.128       .  S
Mg691       O699   2.148       .  S
Mg691       O692   2.304       .  S
Mg691       O693   2.299       .  S
Mg691       O720   2.263       .  S
O693        C697   1.271       .  A
O694       Mg701   2.324       .  S
O695        C714   1.274       .  A
O696        C716   1.275       .  A
O696       Mg712   2.295       .  S
O698       Mg712   2.151       .  S
O698        C709   1.237       .  S
O699       Mg718   2.125       .  S
O700       Mg712   2.292       .  S
Mg701       O717   2.271       .  S
O702       Mg718   2.241       .  S
H703        C708   1.081       .  S
O704       Mg712   2.136       .  S
O704        C707   1.237       .  S
H705        C707   1.081       .  S
H706        C709   1.081       .  S
O711       Mg718   2.297       .  S
C714        O719   1.274       .  A
C714       C1080   1.486       .  S
O715        C716   1.273       .  A
C716        C963   1.485       .  S
O721       Mg723   2.128       .  S
O721       Mg729   2.149       .  S
O721        C756   1.236       .  S
C722        O735   1.236       .  S
C722        O759   1.269       .  A
C722        H761   1.081       .  S
Mg723       O752   2.153       .  S
Mg723       O767   2.302       .  S
Mg723       O763   2.248       .  S
Mg723       O734   2.294       .  S
O724       Mg766   2.155       .  S
O724       Mg749   2.132       .  S
O724        C745   1.237       .  S
O725        C756   1.269       .  A
O725       Mg749   2.291       .  S
C726        O728   1.275       .  A
C726        O740   1.276       .  A
C726        C860   1.484       .  S
O727        C755   1.271       .  A
O727       Mg729   2.297       .  S
O728       Mg760   2.272       .  S
Mg729       O735   2.130       .  S
Mg729       O743   2.262       .  S
Mg729       O731   2.304       .  S
C730        O768   1.273       .  A
C730        O736   1.276       .  A
C730       C1113   1.482       .  S
O731        C738   1.276       .  A
H732        C745   1.081       .  S
C733        O747   1.237       .  S
C733        O748   1.271       .  A
C733        H758   1.081       .  S
O734        C757   1.270       .  A
O735       Mg749   2.154       .  S
O736       Mg766   2.301       .  S
C737        O750   1.274       .  A
C737        O742   1.275       .  A
C737        C990   1.480       .  S
C738        O765   1.273       .  A
C738       C1143   1.483       .  S
Mg739       O746   2.135       .  S
Mg739       O747   2.154       .  S
Mg739       O740   2.301       .  S
Mg739       O741   2.294       .  S
Mg739       O768   2.264       .  S
O741        C745   1.270       .  A
O742       Mg749   2.296       .  S
O743        C762   1.272       .  A
O744        C764   1.278       .  A
O744       Mg760   2.323       .  S
O746       Mg760   2.153       .  S
O746        C757   1.236       .  S
O747       Mg766   2.141       .  S
O748       Mg760   2.300       .  S
Mg749       O765   2.262       .  S
O750       Mg766   2.271       .  S
H751        C756   1.081       .  S
O752       Mg760   2.140       .  S
O752        C755   1.238       .  S
H753        C755   1.081       .  S
H754        C757   1.081       .  S
O759       Mg766   2.291       .  S
C762        O767   1.276       .  A
C762        C910   1.480       .  S
O763        C764   1.272       .  A
C764       C1040   1.479       .  S
C769        H776   1.084       .  S
C769        C770   1.402       .  A
C769        C774   1.394       .  A
C770        C771   1.405       .  A
C771        C772   1.403       .  A
C771        F778   1.357       .  S
C772        H777   1.083       .  S
C772        C773   1.409       .  A
C773        C774   1.410       .  A
C774        F775   1.358       .  S
C779        H786   1.083       .  S
C779        C780   1.405       .  A
C779        C784   1.398       .  A
C780        C781   1.407       .  A
C781        C782   1.399       .  A
C781        F788   1.358       .  S
C782        H787   1.083       .  S
C782        C783   1.407       .  A
C783        C784   1.411       .  A
C784        F785   1.358       .  S
C789        H796   1.084       .  S
C789        C790   1.398       .  A
C789        C794   1.393       .  A
C790        C791   1.403       .  A
C791        C792   1.403       .  A
C791        F798   1.357       .  S
C792        H797   1.083       .  S
C792        C793   1.410       .  A
C793        C794   1.412       .  A
C794        F795   1.358       .  S
C799        H806   1.083       .  S
C799        C800   1.407       .  A
C799        C804   1.398       .  A
C800        C801   1.411       .  A
C801        C802   1.397       .  A
C801        F808   1.358       .  S
C802        H807   1.084       .  S
C802        C803   1.401       .  A
C803        C804   1.405       .  A
C804        F805   1.358       .  S
C809        H816   1.083       .  S
C809        C810   1.406       .  A
C809        C814   1.398       .  A
C810        C811   1.411       .  A
C811        C812   1.398       .  A
C811        F818   1.358       .  S
C812        H817   1.083       .  S
C812        C813   1.405       .  A
C813        C814   1.409       .  A
C814        F815   1.358       .  S
C819        H826   1.083       .  S
C819        C820   1.402       .  A
C819        C824   1.399       .  A
C820        C821   1.403       .  A
C821        C822   1.397       .  A
C821        F828   1.358       .  S
C822        H827   1.083       .  S
C822        C823   1.406       .  A
C823        C824   1.409       .  A
C824        F825   1.358       .  S
C829        H836   1.083       .  S
C829        C830   1.407       .  A
C829        C834   1.403       .  A
C830        C831   1.410       .  A
C831        C832   1.394       .  A
C831        F838   1.358       .  S
C832        H837   1.084       .  S
C832        C833   1.402       .  A
C833        C834   1.408       .  A
C834        F835   1.357       .  S
C839        H846   1.083       .  S
C839        C840   1.407       .  A
C839        C844   1.399       .  A
C840        C841   1.410       .  A
C841        C842   1.399       .  A
C841        F848   1.357       .  S
C842        H847   1.083       .  S
C842        C843   1.406       .  A
C843        C844   1.409       .  A
C844        F845   1.357       .  S
C849        H856   1.083       .  S
C849        C850   1.407       .  A
C849        C854   1.397       .  A
C850        C851   1.411       .  A
C851        C852   1.399       .  A
C851        F858   1.357       .  S
C852        H857   1.083       .  S
C852        C853   1.403       .  A
C853        C854   1.406       .  A
C854        F855   1.358       .  S
C859        H866   1.083       .  S
C859        C860   1.405       .  A
C859        C864   1.399       .  A
C860        C861   1.409       .  A
C861        C862   1.398       .  A
C861        F868   1.358       .  S
C862        H867   1.083       .  S
C862        C863   1.406       .  A
C863        C864   1.411       .  A
C864        F865   1.358       .  S
C869        H876   1.083       .  S
C869        C870   1.405       .  A
C869        C874   1.397       .  A
C870        C871   1.408       .  A
C871        C872   1.397       .  A
C871        F878   1.358       .  S
C872        H877   1.083       .  S
C872        C873   1.406       .  A
C873        C874   1.410       .  A
C874        F875   1.358       .  S
C879        H886   1.083       .  S
C879        C880   1.407       .  A
C879        C884   1.399       .  A
C880        C881   1.412       .  A
C881        C882   1.398       .  A
C881        F888   1.358       .  S
C882        H887   1.083       .  S
C882        C883   1.404       .  A
C883        C884   1.408       .  A
C884        F885   1.358       .  S
C889        H896   1.084       .  S
C889        C890   1.402       .  A
C889        C894   1.394       .  A
C890        C891   1.406       .  A
C891        C892   1.402       .  A
C891        F898   1.357       .  S
C892        H897   1.083       .  S
C892        C893   1.408       .  A
C893        C894   1.409       .  A
C894        F895   1.358       .  S
C899        H906   1.083       .  S
C899        C900   1.407       .  A
C899        C904   1.397       .  A
C900        C901   1.410       .  A
C901        C902   1.398       .  A
C901        F908   1.357       .  S
C902        H907   1.083       .  S
C902        C903   1.406       .  A
C903        C904   1.408       .  A
C904        F905   1.358       .  S
C909        H916   1.083       .  S
C909        C910   1.404       .  A
C909        C914   1.399       .  A
C910        C911   1.407       .  A
C911        C912   1.397       .  A
C911        F918   1.358       .  S
C912        H917   1.083       .  S
C912        C913   1.407       .  A
C913        C914   1.411       .  A
C914        F915   1.357       .  S
C919        H926   1.084       .  S
C919        C920   1.399       .  A
C919        C924   1.394       .  A
C920        C921   1.404       .  A
C921        C922   1.403       .  A
C921        F928   1.357       .  S
C922        H927   1.083       .  S
C922        C923   1.410       .  A
C923        C924   1.412       .  A
C924        F925   1.358       .  S
C929        H936   1.083       .  S
C929        C930   1.406       .  A
C929        C934   1.397       .  A
C930        C931   1.410       .  A
C931        C932   1.398       .  A
C931        F938   1.357       .  S
C932        H937   1.083       .  S
C932        C933   1.406       .  A
C933        C934   1.409       .  A
C934        F935   1.358       .  S
C939        H946   1.083       .  S
C939        C940   1.408       .  A
C939        C944   1.397       .  A
C940        C941   1.410       .  A
C941        C942   1.398       .  A
C941        F948   1.357       .  S
C942        H947   1.083       .  S
C942        C943   1.405       .  A
C943        C944   1.406       .  A
C944        F945   1.358       .  S
C949        H956   1.083       .  S
C949        C950   1.403       .  A
C949        C954   1.398       .  A
C950        C951   1.406       .  A
C951        C952   1.397       .  A
C951        F958   1.358       .  S
C952        H957   1.083       .  S
C952        C953   1.407       .  A
C953        C954   1.411       .  A
C954        F955   1.357       .  S
C959        H966   1.083       .  S
C959        C960   1.403       .  A
C959        C964   1.399       .  A
C960        C961   1.405       .  A
C961        C962   1.396       .  A
C961        F968   1.358       .  S
C962        H967   1.083       .  S
C962        C963   1.407       .  A
C963        C964   1.411       .  A
C964        F965   1.357       .  S
C969        H976   1.083       .  S
C969        C970   1.409       .  A
C969        C974   1.396       .  A
C970        C971   1.412       .  A
C971        C972   1.401       .  A
C971        F978   1.357       .  S
C972        H977   1.083       .  S
C972        C973   1.402       .  A
C973        C974   1.401       .  A
C974        F975   1.358       .  S
C979        H986   1.083       .  S
C979        C980   1.402       .  A
C979        C984   1.397       .  A
C980        C981   1.406       .  A
C981        C982   1.398       .  A
C981        F988   1.358       .  S
C982        H987   1.083       .  S
C982        C983   1.407       .  A
C983        C984   1.412       .  A
C984        F985   1.358       .  S
C989        H996   1.083       .  S
C989        C990   1.403       .  A
C989        C994   1.398       .  A
C990        C991   1.408       .  A
C991        C992   1.398       .  A
C991        F998   1.358       .  S
C992        H997   1.083       .  S
C992        C993   1.407       .  A
C993        C994   1.412       .  A
C994        F995   1.358       .  S
C999       H1006   1.083       .  S
C999       C1000   1.406       .  A
C999       C1004   1.398       .  A
C1000      C1001   1.410       .  A
C1001      C1002   1.398       .  A
C1001      F1008   1.358       .  S
C1002      H1007   1.083       .  S
C1002      C1003   1.405       .  A
C1003      C1004   1.409       .  A
C1004      F1005   1.358       .  S
C1009      H1016   1.084       .  S
C1009      C1010   1.400       .  A
C1009      C1014   1.394       .  A
C1010      C1011   1.406       .  A
C1011      C1012   1.401       .  A
C1011      F1018   1.358       .  S
C1012      H1017   1.083       .  S
C1012      C1013   1.407       .  A
C1013      C1014   1.412       .  A
C1014      F1015   1.358       .  S
C1019      H1026   1.084       .  S
C1019      C1020   1.401       .  A
C1019      C1024   1.393       .  A
C1020      C1021   1.404       .  A
C1021      C1022   1.403       .  A
C1021      F1028   1.357       .  S
C1022      H1027   1.083       .  S
C1022      C1023   1.410       .  A
C1023      C1024   1.411       .  A
C1024      F1025   1.358       .  S
C1029      H1036   1.084       .  S
C1029      C1030   1.402       .  A
C1029      C1034   1.394       .  A
C1030      C1031   1.405       .  A
C1031      C1032   1.402       .  A
C1031      F1038   1.357       .  S
C1032      H1037   1.083       .  S
C1032      C1033   1.409       .  A
C1033      C1034   1.410       .  A
C1034      F1035   1.358       .  S
C1039      H1046   1.083       .  S
C1039      C1040   1.403       .  A
C1039      C1044   1.394       .  A
C1040      C1041   1.407       .  A
C1041      C1042   1.403       .  A
C1041      F1048   1.357       .  S
C1042      H1047   1.083       .  S
C1042      C1043   1.408       .  A
C1043      C1044   1.409       .  A
C1044      F1045   1.358       .  S
C1049      H1056   1.083       .  S
C1049      C1050   1.405       .  A
C1049      C1054   1.400       .  A
C1050      C1051   1.405       .  A
C1051      C1052   1.399       .  A
C1051      F1058   1.358       .  S
C1052      H1057   1.083       .  S
C1052      C1053   1.406       .  A
C1053      C1054   1.407       .  A
C1054      F1055   1.357       .  S
C1059      H1066   1.083       .  S
C1059      C1060   1.409       .  A
C1059      C1064   1.402       .  A
C1060      C1061   1.411       .  A
C1061      C1062   1.394       .  A
C1061      F1068   1.358       .  S
C1062      H1067   1.084       .  S
C1062      C1063   1.398       .  A
C1063      C1064   1.403       .  A
C1064      F1065   1.357       .  S
C1069      H1076   1.083       .  S
C1069      C1070   1.407       .  A
C1069      C1074   1.398       .  A
C1070      C1071   1.411       .  A
C1071      C1072   1.399       .  A
C1071      F1078   1.357       .  S
C1072      H1077   1.083       .  S
C1072      C1073   1.404       .  A
C1073      C1074   1.407       .  A
C1074      F1075   1.358       .  S
C1079      H1086   1.083       .  S
C1079      C1080   1.407       .  A
C1079      C1084   1.398       .  A
C1080      C1081   1.412       .  A
C1081      C1082   1.398       .  A
C1081      F1088   1.358       .  S
C1082      H1087   1.083       .  S
C1082      C1083   1.403       .  A
C1083      C1084   1.407       .  A
C1084      F1085   1.358       .  S
C1089      H1096   1.083       .  S
C1089      C1090   1.407       .  A
C1089      C1094   1.398       .  A
C1090      C1091   1.411       .  A
C1091      C1092   1.397       .  A
C1091      F1098   1.358       .  S
C1092      H1097   1.083       .  S
C1092      C1093   1.402       .  A
C1093      C1094   1.405       .  A
C1094      F1095   1.358       .  S
C1099      H1106   1.083       .  S
C1099      C1100   1.404       .  A
C1099      C1104   1.400       .  A
C1100      C1101   1.406       .  A
C1101      C1102   1.398       .  A
C1101      F1108   1.358       .  S
C1102      H1107   1.084       .  S
C1102      C1103   1.401       .  A
C1103      C1104   1.404       .  A
C1104      F1105   1.357       .  S
C1109      H1116   1.083       .  S
C1109      C1110   1.407       .  A
C1109      C1114   1.398       .  A
C1110      C1111   1.410       .  A
C1111      C1112   1.398       .  A
C1111      F1118   1.357       .  S
C1112      H1117   1.083       .  S
C1112      C1113   1.405       .  A
C1113      C1114   1.408       .  A
C1114      F1115   1.358       .  S
C1119      H1126   1.083       .  S
C1119      C1120   1.403       .  A
C1119      C1124   1.395       .  A
C1120      C1121   1.409       .  A
C1121      C1122   1.402       .  A
C1121      F1128   1.357       .  S
C1122      H1127   1.083       .  S
C1122      C1123   1.406       .  A
C1123      C1124   1.410       .  A
C1124      F1125   1.358       .  S
C1129      H1136   1.083       .  S
C1129      C1130   1.407       .  A
C1129      C1134   1.398       .  A
C1130      C1131   1.410       .  A
C1131      C1132   1.398       .  A
C1131      F1138   1.357       .  S
C1132      H1137   1.083       .  S
C1132      C1133   1.405       .  A
C1133      C1134   1.408       .  A
C1134      F1135   1.358       .  S
C1139      H1146   1.083       .  S
C1139      C1140   1.406       .  A
C1139      C1144   1.397       .  A
C1140      C1141   1.410       .  A
C1141      C1142   1.398       .  A
C1141      F1148   1.357       .  S
C1142      H1147   1.083       .  S
C1142      C1143   1.405       .  A
C1143      C1144   1.408       .  A
C1144      F1145   1.358       .  S
C1149      H1156   1.083       .  S
C1149      C1150   1.407       .  A
C1149      C1154   1.399       .  A
C1150      C1151   1.411       .  A
C1151      C1152   1.398       .  A
C1151      F1158   1.358       .  S
C1152      H1157   1.083       .  S
C1152      C1153   1.404       .  A
C1153      C1154   1.407       .  A
C1154      F1155   1.358       .  S
C1159      H1166   1.084       .  S
C1159      C1160   1.402       .  A
C1159      C1164   1.398       .  A
C1160      C1161   1.404       .  A
C1161      C1162   1.400       .  A
C1161      F1168   1.357       .  S
C1162      H1167   1.083       .  S
C1162      C1163   1.402       .  A
C1163      C1164   1.404       .  A
C1164      F1165   1.358       .  S
C1169      H1176   1.083       .  S
C1169      C1170   1.406       .  A
C1169      C1174   1.399       .  A
C1170      C1171   1.409       .  A
C1171      C1172   1.399       .  A
C1171      F1178   1.358       .  S
C1172      H1177   1.083       .  S
C1172      C1173   1.406       .  A
C1173      C1174   1.410       .  A
C1174      F1175   1.358       .  S
C1179      H1186   1.083       .  S
C1179      C1180   1.409       .  A
C1179      C1184   1.397       .  A
C1180      C1181   1.412       .  A
C1181      C1182   1.401       .  A
C1181      F1188   1.357       .  S
C1182      H1187   1.084       .  S
C1182      C1183   1.401       .  A
C1183      C1184   1.400       .  A
C1184      F1185   1.358       .  S
C1189      H1196   1.083       .  S
C1189      C1190   1.403       .  A
C1189      C1194   1.398       .  A
C1190      C1191   1.407       .  A
C1191      C1192   1.398       .  A
C1191      F1198   1.358       .  S
C1192      H1197   1.083       .  S
C1192      C1193   1.407       .  A
C1193      C1194   1.411       .  A
C1194      F1195   1.358       .  S
C1199      H1206   1.083       .  S
C1199      C1200   1.405       .  A
C1199      C1204   1.398       .  A
C1200      C1201   1.408       .  A
C1201      C1202   1.397       .  A
C1201      F1208   1.358       .  S
C1202      H1207   1.083       .  S
C1202      C1203   1.406       .  A
C1203      C1204   1.410       .  A
C1204      F1205   1.357       .  S
C1209      H1216   1.083       .  S
C1209      C1210   1.410       .  A
C1209      C1214   1.402       .  A
C1210      C1211   1.412       .  A
C1211      C1212   1.393       .  A
C1211      F1218   1.358       .  S
C1212      H1217   1.084       .  S
C1212      C1213   1.398       .  A
C1213      C1214   1.403       .  A
C1214      F1215   1.357       .  S
C1219      H1226   1.083       .  S
C1219      C1220   1.406       .  A
C1219      C1224   1.398       .  A
C1220      C1221   1.409       .  A
C1221      C1222   1.396       .  A
C1221      F1228   1.358       .  S
C1222      H1227   1.083       .  S
C1222      C1223   1.405       .  A
C1223      C1224   1.409       .  A
C1224      F1225   1.358       .  S
C1229      H1236   1.083       .  S
C1229      C1230   1.403       .  A
C1229      C1234   1.398       .  A
C1230      C1231   1.405       .  A
C1231      C1232   1.397       .  A
C1231      F1238   1.358       .  S
C1232      H1237   1.083       .  S
C1232      C1233   1.407       .  A
C1233      C1234   1.411       .  A
C1234      F1235   1.357       .  S
C1239      H1246   1.083       .  S
C1239      C1240   1.408       .  A
C1239      C1244   1.397       .  A
C1240      C1241   1.411       .  A
C1241      C1242   1.399       .  A
C1241      F1248   1.358       .  S
C1242      H1247   1.084       .  S
C1242      C1243   1.400       .  A
C1243      C1244   1.401       .  A
C1244      F1245   1.358       .  S
