geometry optimzed in LAMMPS
_audit_creation_date              2020-11-30 
_audit_creation_method            'lammps2cif' 
_symmetry_space_group_name_H-M    'P1' 
_symmetry_Int_Tables_number       1 
_symmetry_cell_setting            triclinic 
loop_ 
_symmetry_equiv_pos_as_xyz 
  x,y,z 
_cell_length_a                    28.90165551 
_cell_length_b                    28.36125060772159 
_cell_length_c                    28.451148970366894 
_cell_angle_alpha                 89.6779564807256 
_cell_angle_beta                  90.59752321649933 
_cell_angle_gamma                 90.41221727923894 
loop_ 
_atom_site_label 
_atom_site_type_symbol 
_atom_site_fract_x 
_atom_site_fract_y 
_atom_site_fract_z 
_atom_site_charge 
O1          O  0.54757840  0.04856373  0.88578737    -0.85500
O2          O  0.52438614  0.06262494  0.61586040    -0.85700
O3          O  0.62865401  0.05825743  0.74071493    -0.87300
O4          O  0.51357749  0.15328175  0.76150668    -0.86100
O5          O  0.43458944  0.14405338  0.76397296    -0.85700
O6          O  0.63543588  0.97774924  0.73592042    -0.87100
O7          O  0.56352111  0.10578434  0.67208997    -0.85500
O8          O  0.58113676  0.09529501  0.82901043    -0.85100
Zr9        Zr  0.54699747  0.07470035  0.75161837     2.84300
O10         O  0.47832126  0.06885214  0.70754200    -1.07100
O11         O  0.55582165  0.00571488  0.79676991    -1.07800
C12         C  0.57612097  0.08077710  0.87206972     1.07600
C13         C  0.55225163  0.09582243  0.62887047     1.07500
C14         C  0.65207960  0.02028209  0.73455095     1.10500
C15         C  0.47187162  0.16912771  0.76544688     1.08300
H16         H  0.57378205  0.01259688  0.67933457     0.33900
O17         O  0.54846130  0.00942294  0.70101345    -1.28100
H18         H  0.48426488  0.09173593  0.82493715     0.33500
O19         O  0.48519179  0.06527164  0.80377547    -1.29700
O20         O  0.42847691  0.94327876  0.61946992    -0.85500
O21         O  0.43922085  0.94073532  0.88712648    -0.87000
O22         O  0.58049635  0.91527380  0.66837115    -0.85600
O23         O  0.38449823  0.09232960  0.68707935    -0.85600
O24         O  0.39055875  0.07966881  0.83784515    -0.85300
O25         O  0.59274088  0.91202186  0.82046413    -0.85100
O26         O  0.46105855  0.85155295  0.75068698    -0.85500
O27         O  0.34491854  0.94654639  0.75342249    -0.85000
O28         O  0.53986831  0.85802234  0.74244958    -0.86000
O29         O  0.33915145  0.02708823  0.75710175    -0.85200
O30         O  0.53281333  0.95251889  0.61500610    -0.85600
O31         O  0.55272927  0.94361630  0.88202146    -0.85300
O32         O  0.43796054  0.04276467  0.89166857    -0.85000
O33         O  0.42261599  0.05931666  0.62501187    -0.85400
O34         O  0.39814426  0.89818192  0.67905424    -0.85700
O35         O  0.40225237  0.89851539  0.82902629    -0.87000
Zr36       Zr  0.47942347  0.00339405  0.65692768     2.83100
Zr37       Zr  0.49310140  0.99551912  0.84808234     2.83500
Zr38       Zr  0.55888232  0.94124007  0.74638069     2.84100
Zr39       Zr  0.41667343  0.06066343  0.75936962     2.83400
Zr40       Zr  0.42706180  0.92853821  0.75340125     2.84200
O41         O  0.42429265  0.99226889  0.80431891    -1.07600
O42         O  0.48970303  0.93584082  0.70282454    -1.07100
C43         C  0.40289369  0.90894511  0.63528208     1.07600
C44         C  0.40996400  0.90920027  0.87236228     1.10200
C45         C  0.56562188  0.92369491  0.62622169     1.07700
C46         C  0.39259305  0.08754886  0.64294086     1.08100
C47         C  0.40372790  0.06969468  0.88022773     1.07700
C48         C  0.58478052  0.91721875  0.86483223     1.07200
C49         C  0.50194356  0.83437421  0.74683572     1.07700
C50         C  0.32171128  0.98519151  0.75347771     1.07200
H51         H  0.49927007  0.90265230  0.81607349     0.33900
O52         O  0.49605205  0.93112692  0.79760016    -1.28700
H53         H  0.38923116  0.99493349  0.68952686     0.33900
O54         O  0.41739102  0.99650062  0.70800878    -1.30100
C55         C  0.70665912  0.20797492  0.52465920     0.87500
C56         C  0.68594014  0.17650883  0.56266393    -0.52800
C57         C  0.63952873  0.16914325  0.55775138     0.10400
C58         C  0.61814080  0.19351788  0.51361395     0.21300
C59         C  0.69376806  0.18447654  0.47776001    -0.53500
C60         C  0.64752424  0.17660717  0.47146336     0.10500
C61         C  0.67828913  0.25301265  0.52600222    -0.53000
C62         C  0.63195080  0.24595603  0.52009018     0.11100
H63         H  0.70590931  0.16293851  0.59230023     0.15600
H64         H  0.58029582  0.18817579  0.50902343     0.01300
H65         H  0.71919355  0.17510874  0.45160982     0.15900
H66         H  0.69398234  0.28771407  0.52987589     0.15700
O67         O  0.58797308  0.11266527  0.34173661    -0.85500
O68         O  0.40605289  0.91732158  0.32463019    -0.85700
O69         O  0.44788458  0.06420541  0.39037943    -0.87300
O70         O  0.55015772  0.95157207  0.38158631    -0.86100
O71         O  0.58668503  0.91744020  0.31932791    -0.85700
O72         O  0.41042015  0.11220170  0.33731116    -0.87100
O73         O  0.44749542  0.95510164  0.38285222    -0.85500
O74         O  0.54782522  0.06532238  0.39311158    -0.85100
Zr75       Zr  0.49914728  0.01195211  0.34805680     2.84300
O76         O  0.49636682  0.94862106  0.29578579    -1.07100
O77         O  0.50028399  0.08373948  0.30737704    -1.07800
C78         C  0.57589360  0.09954318  0.38384023     1.07600
C79         C  0.41762597  0.92464326  0.36813391     1.07500
C80         C  0.41998964  0.09793996  0.37941979     1.10500
C81         C  0.57835823  0.92163839  0.36344511     1.08300
H82         H  0.40607037  0.01558347  0.32157971     0.33900
O83         O  0.43260822  0.01649538  0.30126144    -1.28100
H84         H  0.59248060  0.01308850  0.32205170     0.33500
O85         O  0.56536021  0.01582127  0.30213527    -1.29700
O86         O  0.39811524  0.93390728  0.17218283    -0.85500
O87         O  0.59573548  0.11431592  0.18446352    -0.87000
O88         O  0.35412624  0.06386643  0.26114320    -0.85600
O89         O  0.53788661  0.87426795  0.23748017    -0.85600
O90         O  0.64069788  0.97645525  0.24986988    -0.85300
O91         O  0.46247330  0.16953025  0.25712043    -0.85100
O92         O  0.43859420  0.08504711  0.12613608    -0.85500
O93         O  0.54860320  0.98244474  0.11476348    -0.85000
O94         O  0.40126045  0.11959194  0.18768503    -0.86000
O95         O  0.59120165  0.94154544  0.16955196    -0.85200
O96         O  0.34975505  0.98286784  0.25779030    -0.85600
O97         O  0.54197359  0.16852033  0.26171392    -0.85300
O98         O  0.64537865  0.05634365  0.26211454    -0.85000
O99         O  0.45845456  0.87045137  0.23647214    -0.85400
O100        O  0.43824045  0.97840533  0.11816119    -0.85700
O101        O  0.55449430  0.08067674  0.12339305    -0.87000
Zr102      Zr  0.42937297  0.95232828  0.24930386     2.83100
Zr103      Zr  0.56624068  0.08716715  0.26070401     2.83500
Zr104      Zr  0.43435297  0.08812642  0.25962067     2.84100
Zr105      Zr  0.56055568  0.95482397  0.24734507     2.83400
Zr106      Zr  0.49482342  0.02944762  0.15884310     2.84200
O107        O  0.56112229  0.02562146  0.20668760    -1.07600
O108        O  0.43038507  0.02451031  0.20773306    -1.07100
C109        C  0.40712696  0.94749346  0.12985994     1.07600
C110        C  0.58744209  0.10717691  0.14019925     1.10200
C111        C  0.33167061  0.02452184  0.26135377     1.07700
C112        C  0.49944012  0.85175316  0.23378519     1.08100
C113        C  0.66320023  0.01493770  0.25676655     1.07700
C114        C  0.50280828  0.18957038  0.25770840     1.07200
C115        C  0.40796211  0.11276989  0.14360842     1.07700
C116        C  0.58172607  0.95477145  0.12707617     1.07200
H117        H  0.49997917  0.12090268  0.19356154     0.33900
O118        O  0.49960156  0.09212941  0.21183706    -1.28700
H119        H  0.49424219  0.93200737  0.17772844     0.33900
O120        O  0.49417879  0.95758678  0.19998379    -1.30100
C121        C  0.29238617  0.80430707  0.01029919     0.87500
C122        C  0.32078423  0.82564799  0.97020780    -0.52800
C123        C  0.32852873  0.87317682  0.97387923     0.10400
C124        C  0.30555290  0.89483416  0.01734752     0.21300
C125        C  0.31857358  0.81860059  0.05542097    -0.53500
C126        C  0.32609812  0.86622915  0.05875606     0.10500
C127        C  0.24771512  0.83233327  0.01086925    -0.53000
C128        C  0.25407221  0.87958909  0.01538921     0.11100
H129        H  0.33407747  0.80399262  0.94227002     0.15600
H130        H  0.31040759  0.93357637  0.02022200     0.01300
H131        H  0.33107447  0.79345152  0.08145096     0.15900
H132        H  0.21371599  0.81598993  0.00762538     0.15700
C133        C  0.68585993  0.80807461  0.01911050     0.87500
C134        C  0.66732062  0.83100317  0.06324156    -0.52800
C135        C  0.66514266  0.87868453  0.06050686     0.10400
C136        C  0.68236421  0.89983192  0.01387299     0.21300
C137        C  0.65467882  0.82651276  0.97844933    -0.53500
C138        C  0.65272784  0.87495903  0.97589386     0.10500
C139        C  0.73283719  0.83166849  0.01105214    -0.53000
C140        C  0.73130548  0.87943849  0.00809143     0.11100
H141        H  0.65553319  0.81118158  0.09372076     0.15600
H142        H  0.68106326  0.93894210  0.01203882     0.01300
H143        H  0.63516246  0.80349661  0.95506932     0.15900
H144        H  0.76483614  0.81213256  0.00757598     0.15700
C145        C  0.70011561  0.81825014  0.49718491     0.87500
C146        C  0.67496629  0.85030753  0.46180672    -0.52800
C147        C  0.62825372  0.85343935  0.46906975     0.10400
C148        C  0.61120146  0.82418127  0.51119666     0.21300
C149        C  0.68782841  0.83827788  0.54559750    -0.53500
C150        C  0.64127307  0.84236620  0.55249650     0.10500
C151        C  0.67457985  0.77120525  0.49399387    -0.53000
C152        C  0.62831848  0.77370168  0.50153756     0.11100
H153        H  0.69279288  0.86959708  0.43424880     0.15600
H154        H  0.57329329  0.82634620  0.51675255     0.01300
H155        H  0.71356732  0.85068290  0.57082025     0.15900
H156        H  0.69172775  0.73841074  0.48539445     0.15700
C157        C  0.29843800  0.21712681  0.99823310     0.87500
C158        C  0.32901862  0.19741981  0.03795671    -0.52800
C159        C  0.33481576  0.14961290  0.03625472     0.10400
C160        C  0.30911953  0.12604988  0.99486832     0.21300
C161        C  0.32127855  0.20027410  0.95284401    -0.53500
C162        C  0.32749539  0.15252533  0.95138738     0.10500
C163        C  0.25322781  0.18941768  0.00156679    -0.53000
C164        C  0.25850841  0.14197216  0.99935137     0.11100
H165        H  0.34586128  0.21984265  0.06384803     0.15600
H166        H  0.31291738  0.08714216  0.99385505     0.01300
H167        H  0.33285266  0.22402664  0.92521460     0.15900
H168        H  0.21971860  0.20592874  0.00587880     0.15700
C169        C  0.69428849  0.21801694  0.99673764     0.87500
C170        C  0.66547788  0.20643210  0.95249010    -0.52800
C171        C  0.65772539  0.15926544  0.94632882     0.10400
C172        C  0.68025368  0.12815074  0.98506613     0.21300
C173        C  0.66811486  0.19457174  0.03725767    -0.53500
C174        C  0.66004959  0.14728284  0.03154207     0.10500
C175        C  0.73874394  0.19003714  0.99179281    -0.53000
C176        C  0.73193762  0.14325410  0.98442077     0.11100
H177        H  0.65199762  0.23313546  0.92860255     0.15600
H178        H  0.67519887  0.08965326  0.98030137     0.01300
H179        H  0.65508089  0.21482246  0.06641797     0.15900
H180        H  0.77295874  0.20613131  0.99357893     0.15700
C181        C  0.28363397  0.20432442  0.50667791     0.87500
C182        C  0.29670523  0.18331967  0.45896444    -0.52800
C183        C  0.34306731  0.17586931  0.45442928     0.10400
C184        C  0.37220909  0.19141082  0.49731327     0.21300
C185        C  0.30429171  0.17040446  0.54321595    -0.53500
C186        C  0.35092789  0.16364549  0.53858157     0.10500
C187        C  0.31249445  0.24940084  0.51130125    -0.53000
C188        C  0.35868448  0.24303328  0.50549884     0.11100
H189        H  0.27148603  0.17353157  0.43210509     0.15600
H190        H  0.41009705  0.18657882  0.49371840     0.01300
H191        H  0.28331144  0.15260207  0.56936072     0.15900
H192        H  0.29756912  0.28368484  0.51834069     0.15700
C193        C  0.28324608  0.80788150  0.49225358     0.87500
C194        C  0.30734229  0.83597121  0.53186547    -0.52800
C195        C  0.35385881  0.84310195  0.52531188     0.10400
C196        C  0.37148496  0.82079398  0.47958317     0.21300
C197        C  0.29443661  0.83525241  0.44691226    -0.53500
C198        C  0.34070978  0.84227124  0.44041317     0.10500
C199        C  0.31032804  0.76219096  0.48874215    -0.53000
C200        C  0.35625082  0.76863384  0.48124395     0.11100
H201        H  0.28863107  0.85030938  0.56133744     0.15600
H202        H  0.40925766  0.82537964  0.47422056     0.01300
H203        H  0.26823638  0.84831609  0.42258519     0.15900
H204        H  0.29438985  0.72750598  0.49189045     0.15700
O205        O  0.84330145  0.77818016  0.46542818    -0.85500
O206        O  0.04640133  0.75462039  0.63512760    -0.85700
O207        O  0.89696955  0.68818896  0.58502230    -0.87300
O208        O  0.91517239  0.84559079  0.59047390    -0.86100
O209        O  0.95403386  0.89932921  0.54424925    -0.85700
O210        O  0.93357877  0.63042313  0.54350576    -0.87100
O211        O  0.96722255  0.75480652  0.64240482    -0.85500
O212        O  0.85154684  0.77252376  0.54578052    -0.85100
Zr213      Zr  0.93304682  0.76526339  0.56353921     2.84300
O214        O  0.00098434  0.81041543  0.55571467    -1.07100
O215        O  0.92316056  0.71902772  0.49635236    -1.07800
C216        C  0.82739028  0.77826534  0.50795342     1.07600
C217        C  0.00893682  0.75141996  0.65924272     1.07500
C218        C  0.90334801  0.64463281  0.57264240     1.10500
C219        C  0.92643482  0.88830387  0.57814208     1.08300
H220        H  0.99728593  0.69384281  0.58428217     0.33900
O221        O  0.99597587  0.71452187  0.55724997    -1.28100
H222        H  0.90473671  0.83564624  0.49746815     0.33500
O223        O  0.92992857  0.81359780  0.49558424    -1.29700
O224        O  0.14149536  0.76489078  0.51786824    -0.85500
O225        O  0.93711797  0.75783349  0.34602026    -0.87000
O226        O  0.04283728  0.62701663  0.53935397    -0.85600
O227        O  0.05224408  0.89576130  0.53785592    -0.85600
O228        O  0.94746876  0.89787047  0.43422152    -0.85300
O229        O  0.92240053  0.63367691  0.43977497    -0.85100
O230        O  0.07930882  0.67399360  0.40034102    -0.85500
O231        O  0.08050543  0.82787867  0.38368593    -0.85000
O232        O  0.03568241  0.62091611  0.44210405    -0.86000
O233        O  0.05083515  0.88938889  0.42589719    -0.85200
O234        O  0.09156036  0.68167047  0.57377261    -0.85600
O235        O  0.88114886  0.69497813  0.40741073    -0.85300
O236        O  0.90005512  0.84432236  0.39717625    -0.85000
O237        O  0.08856080  0.83942406  0.58282131    -0.85400
O238        O  0.13394432  0.75701783  0.43763422    -0.85700
O239        O  0.01564593  0.74690674  0.33934431    -0.87000
Zr240      Zr  0.06436025  0.76042632  0.55197033     2.83100
Zr241      Zr  0.91978223  0.76688732  0.42917502     2.83500
Zr242      Zr  0.98536403  0.66742283  0.49031429     2.84100
Zr243      Zr  0.99889611  0.85589871  0.48641238     2.83400
Zr244      Zr  0.05179790  0.75447992  0.41728240     2.84200
O245        O  0.98980377  0.80759861  0.42081218    -1.07600
O246        O  0.05431193  0.71078824  0.48648304    -1.07100
C247        C  0.15783783  0.76345159  0.47571225     1.07600
C248        C  0.97390546  0.74909023  0.32232587     1.10200
C249        C  0.07809679  0.63890071  0.56512138     1.07700
C250        C  0.07896632  0.88299390  0.57182235     1.08100
C251        C  0.91535220  0.88655609  0.40474786     1.07700
C252        C  0.88887445  0.65090472  0.41415765     1.07200
C253        C  0.06881742  0.63152415  0.41408371     1.07700
C254        C  0.07637947  0.87214348  0.39295079     1.07200
H255        H  0.97755968  0.69204796  0.39647574     0.33900
O256        O  0.98167341  0.71315270  0.42270902    -1.28700
H257        H  0.08880342  0.82412343  0.47967957     0.33900
O258        O  0.06130223  0.80487215  0.48247655    -1.30100
O259        O  0.84819598  0.26284867  0.46367540    -0.85500
O260        O  0.04282140  0.25744878  0.64521256    -0.85700
O261        O  0.90731235  0.17584829  0.59793229    -0.87300
O262        O  0.90198754  0.33023641  0.59980992    -0.86100
O263        O  0.94103967  0.39144614  0.56407599    -0.85700
O264        O  0.94200852  0.12353226  0.54832320    -0.87100
O265        O  0.96361646  0.26388791  0.64891899    -0.85500
O266        O  0.85050513  0.24940111  0.54337628    -0.85100
Zr267      Zr  0.93086845  0.25542016  0.57023051     2.84300
O268        O  0.99874024  0.30140882  0.57015760    -1.07100
O269        O  0.92604769  0.21450705  0.49925768    -1.07800
C270        C  0.82929148  0.25349375  0.50331564     1.07600
C271        C  0.00469848  0.26424848  0.66725537     1.07500
C272        C  0.91607609  0.13340669  0.58364197     1.10500
C273        C  0.91010069  0.37455744  0.59241888     1.08300
H274        H  0.99681674  0.18632143  0.59048169     0.33900
O275        O  0.99597744  0.20758628  0.56389934    -1.28100
H276        H  0.90181650  0.32860636  0.50913495     0.33500
O277        O  0.92921474  0.30944424  0.50755004    -1.29700
O278        O  0.14161243  0.24649099  0.53048616    -0.85500
O279        O  0.94585838  0.27458459  0.35540515    -0.87000
O280        O  0.04100489  0.11953315  0.54161932    -0.85600
O281        O  0.05549926  0.38946958  0.56237817    -0.85600
O282        O  0.94096880  0.40021648  0.45959412    -0.85300
O283        O  0.93549612  0.13339619  0.43702964    -0.85100
O284        O  0.08105975  0.19024943  0.39590024    -0.85500
O285        O  0.08685087  0.34657109  0.41031052    -0.85000
O286        O  0.04115133  0.13218661  0.43556251    -0.86000
O287        O  0.04930957  0.39928149  0.45751299    -0.85200
O288        O  0.08331103  0.17133537  0.58680996    -0.85600
O289        O  0.89672736  0.19588099  0.40406404    -0.85300
O290        O  0.90021627  0.34670165  0.41499834    -0.85000
O291        O  0.09614160  0.32689642  0.59330989    -0.85400
O292        O  0.13780692  0.26020110  0.45080238    -0.85700
O293        O  0.02492644  0.27929696  0.34973854    -0.87000
Zr294      Zr  0.06381794  0.25296840  0.56301728     2.83100
Zr295      Zr  0.92659720  0.26846842  0.43699049     2.83500
Zr296      Zr  0.99075957  0.16688505  0.49274925     2.84100
Zr297      Zr  0.99631174  0.35658994  0.50880828     2.83400
Zr298      Zr  0.05702603  0.26689461  0.42900706     2.84200
O299        O  0.99275092  0.31609788  0.43713375    -1.07600
O300        O  0.05848803  0.21269573  0.49195497    -1.07100
C301        C  0.15975799  0.25049987  0.48921340     1.07600
C302        C  0.98338173  0.27986091  0.33223524     1.10200
C303        C  0.07044290  0.12912213  0.57442543     1.07700
C304        C  0.08799385  0.37145046  0.58845731     1.08100
C305        C  0.90995955  0.38903993  0.42839935     1.07700
C306        C  0.90539260  0.15164177  0.40864009     1.07200
C307        C  0.07016793  0.14651112  0.40447926     1.07700
C308        C  0.07883919  0.38879874  0.42553152     1.07200
H309        H  0.98823616  0.20258696  0.39953520     0.33900
O310        O  0.99031178  0.21960337  0.42879147    -1.28700
H311        H  0.08913109  0.32597274  0.50136224     0.33900
O312        O  0.06107369  0.30730228  0.50073222    -1.30100
C313        C  0.79200531  0.50915696  0.69828959     0.87500
C314        C  0.82808995  0.47533406  0.67874786    -0.52800
C315        C  0.83648253  0.48124600  0.63176478     0.10400
C316        C  0.80787204  0.52164474  0.60923221     0.21300
C317        C  0.81019755  0.55867252  0.68650215    -0.53500
C318        C  0.81891618  0.56542213  0.64008156     0.10500
C319        C  0.74930951  0.50206204  0.66719801    -0.53000
C320        C  0.75717718  0.50888084  0.62066589     0.11100
H321        H  0.84547267  0.44936230  0.70064549     0.15600
H322        H  0.81395940  0.52663459  0.57105063     0.01300
H323        H  0.81727845  0.58542387  0.71286148     0.15900
H324        H  0.71559993  0.49209569  0.68082189     0.15700
C325        C  0.19214580  0.51476681  0.70403744     0.87500
C326        C  0.16559643  0.55951861  0.69012169    -0.52800
C327        C  0.15958432  0.56484362  0.64272022     0.10400
C328        C  0.18130201  0.52510693  0.61356409     0.21300
C329        C  0.16503839  0.47423820  0.68055243    -0.53500
C330        C  0.15888409  0.47958394  0.63299802     0.10500
C331        C  0.23769548  0.51815571  0.67748996    -0.53000
C332        C  0.23244744  0.52403687  0.63020562     0.11100
H333        H  0.15218613  0.58432745  0.71545242     0.15600
H334        H  0.17711560  0.52959870  0.57494735     0.01300
H335        H  0.15016900  0.44530395  0.70056081     0.15900
H336        H  0.27131520  0.51538140  0.69469324     0.15700
C337        C  0.78958720  0.02319653  0.29586632     0.87500
C338        C  0.79955151  0.97331606  0.31457105    -0.52800
C339        C  0.84556603  0.96468798  0.32111139     0.10400
C340        C  0.87745762  0.00623723  0.30709791     0.21300
C341        C  0.81349326  0.05595951  0.33072315    -0.53500
C342        C  0.85973267  0.04770414  0.33647989     0.10500
C343        C  0.81736444  0.02802503  0.25076522    -0.53000
C344        C  0.86319390  0.01851587  0.25624182     0.11100
H345        H  0.77265577  0.94827096  0.32432037     0.15600
H346        H  0.91507576  0.99953594  0.31152165     0.01300
H347        H  0.79479288  0.08265687  0.34982804     0.15900
H348        H  0.80205228  0.03832511  0.21722558     0.15700
C349        C  0.77662817  0.00021784  0.69004935     0.87500
C350        C  0.79265955  0.04674176  0.66726221    -0.52800
C351        C  0.83933810  0.04983859  0.66017999     0.10400
C352        C  0.86589437  0.00527420  0.67732974     0.21300
C353        C  0.79545790  0.96128007  0.65855122    -0.53500
C354        C  0.84210631  0.96329330  0.65169250     0.10500
C355        C  0.80480199  0.99610800  0.73549292    -0.53000
C356        C  0.85152421  0.99849651  0.72945674     0.11100
H357        H  0.76900251  0.07480584  0.65746030     0.15600
H358        H  0.90393426  0.00737345  0.67269857     0.01300
H359        H  0.77378565  0.93338836  0.64397846     0.15900
H360        H  0.78877719  0.99273969  0.76971976     0.15700
C361        C  0.79128376  0.51187126  0.29011048     0.87500
C362        C  0.81489261  0.55244397  0.31710634    -0.52800
C363        C  0.82109393  0.54377930  0.36427042     0.10400
C364        C  0.80179085  0.49569892  0.38002831     0.21300
C365        C  0.82134951  0.46842703  0.30160036    -0.53500
C366        C  0.82744054  0.46049258  0.34886571     0.10500
C367        C  0.74591260  0.50274845  0.31568145    -0.53000
C368        C  0.75094900  0.49367801  0.36245501     0.11100
H369        H  0.82843449  0.58358656  0.29952109     0.15600
H370        H  0.80566796  0.48899646  0.41836680     0.01300
H371        H  0.83732506  0.44686424  0.27493572     0.15900
H372        H  0.71237040  0.50438347  0.29818038     0.15700
C373        C  0.19989643  0.51343377  0.28978822     0.87500
C374        C  0.17037277  0.47018952  0.30258350    -0.52800
C375        C  0.15731968  0.46868105  0.34862050     0.10400
C376        C  0.17503666  0.51165970  0.37752567     0.21300
C377        C  0.17139365  0.55607497  0.30412776    -0.53500
C378        C  0.15806588  0.55559931  0.34967095     0.10500
C379        C  0.24070557  0.51272037  0.32414916    -0.53000
C380        C  0.22802877  0.51147256  0.37010800     0.11100
H381        H  0.16124551  0.44277958  0.27755295     0.15600
H382        H  0.16543953  0.51157123  0.41516453     0.01300
H383        H  0.16264486  0.58478819  0.28022973     0.15900
H384        H  0.27659372  0.51444153  0.31317799     0.15700
C385        C  0.20382584  0.01072873  0.29852167     0.87500
C386        C  0.19421366  0.05693927  0.32503216    -0.52800
C387        C  0.14814581  0.06617750  0.33048677     0.10400
C388        C  0.11608989  0.02820731  0.30839528     0.21300
C389        C  0.17749541  0.97241443  0.32608834    -0.53500
C390        C  0.13131196  0.98142778  0.33146054     0.10500
C391        C  0.17738776  0.01571178  0.25193484    -0.53000
C392        C  0.13172658  0.02558392  0.25690912     0.11100
H393        H  0.22138894  0.08000703  0.33844225     0.15600
H394        H  0.07848612  0.03498262  0.31130739     0.01300
H395        H  0.19442005  0.94170076  0.34110881     0.15900
H396        H  0.19340716  0.01141119  0.21785780     0.15700
C397        C  0.19973765  0.01099106  0.70576155     0.87500
C398        C  0.18984094  0.96732974  0.67562045    -0.52800
C399        C  0.14519657  0.96359320  0.66009045     0.10400
C400        C  0.11427339  0.00542180  0.67577875     0.21300
C401        C  0.18475358  0.05307428  0.67564726    -0.53500
C402        C  0.14032752  0.05069268  0.65978072     0.10500
C403        C  0.16449709  0.00861251  0.74534801    -0.53000
C404        C  0.11966836  0.00626417  0.72999352     0.11100
H405        H  0.21582488  0.94104258  0.66796913     0.15600
H406        H  0.07765637  0.00319048  0.66378887     0.01300
H407        H  0.20712877  0.08317665  0.66843941     0.15900
H408        H  0.17409595  0.00892020  0.78237564     0.15700
O409        O  0.72507599  0.66044748  0.95521485    -0.85500
O410        O  0.74994124  0.46063503  0.13560406    -0.85700
O411        O  0.65883176  0.59583537  0.09030642    -0.87300
O412        O  0.80622949  0.60680124  0.09212485    -0.86100
O413        O  0.86607496  0.57431395  0.05073526    -0.85700
O414        O  0.60563294  0.55539951  0.04510743    -0.87100
O415        O  0.74718310  0.54131978  0.14171173    -0.85500
O416        O  0.72159794  0.65791377  0.03584700    -0.85100
Zr417      Zr  0.73485232  0.57531414  0.06156864     2.84300
O418        O  0.78580755  0.51194848  0.05602527    -1.07100
O419        O  0.68847539  0.57521529  0.99376448    -1.07800
C420        C  0.71961222  0.67948080  0.99540716     1.07600
C421        C  0.75200058  0.49910808  0.15923047     1.07500
C422        C  0.61704899  0.58485180  0.07796681     1.10500
C423        C  0.84927867  0.60113271  0.08320950     1.08300
H424        H  0.67394474  0.50242677  0.08592376     0.33900
O425        O  0.69259871  0.50485860  0.05804453    -1.28100
H426        H  0.79857662  0.61316996  0.99639313     0.33500
O427        O  0.78185694  0.58359690  0.99489236    -1.29700
O428        O  0.73690667  0.36246662  0.02001128    -0.85500
O429        O  0.74016787  0.56386764  0.84515478    -0.87000
O430        O  0.61244979  0.44782699  0.04175581    -0.85600
O431        O  0.87395820  0.46490408  0.04162353    -0.85600
O432        O  0.86806380  0.58191128  0.93939320    -0.85300
O433        O  0.60454750  0.55685399  0.93874844    -0.85100
O434        O  0.67106624  0.41981322  0.88856907    -0.85500
O435        O  0.81903937  0.42882455  0.89167416    -0.85000
O436        O  0.61142959  0.45091579  0.93092440    -0.86000
O437        O  0.87492812  0.46854206  0.93413376    -0.85200
O438        O  0.66959465  0.41232707  0.08573356    -0.85600
O439        O  0.65717014  0.60185198  0.89802741    -0.85300
O440        O  0.80728798  0.61772515  0.90114110    -0.85000
O441        O  0.82108102  0.41639765  0.07831011    -0.85400
O442        O  0.74293175  0.36794917  0.93973305    -0.85700
O443        O  0.74863197  0.48366544  0.84103330    -0.87000
Zr444      Zr  0.74355627  0.44118251  0.05347314     2.83100
Zr445      Zr  0.73476184  0.58230408  0.92733196     2.83500
Zr446      Zr  0.64655356  0.50478146  0.98958490     2.84100
Zr447      Zr  0.83399247  0.52037556  0.99049098     2.83400
Zr448      Zr  0.74381436  0.45062827  0.91993668     2.84200
O449        O  0.78691502  0.52036316  0.92325460    -1.07600
O450        O  0.69708315  0.44140081  0.98599092    -1.07100
C451        C  0.73723753  0.34479795  0.97822889     1.07600
C452        C  0.74668048  0.52536150  0.82270967     1.10200
C453        C  0.62667463  0.42022263  0.07472204     1.07700
C454        C  0.86277815  0.43053945  0.06925230     1.08100
C455        C  0.85087444  0.61224627  0.90979844     1.07700
C456        C  0.61559472  0.58789915  0.90783355     1.07200
C457        C  0.62777290  0.42425776  0.89815285     1.07700
C458        C  0.86141614  0.43909048  0.90175325     1.07200
H459        H  0.67322768  0.51257020  0.89403442     0.33900
O460        O  0.69202301  0.51264782  0.92228517    -1.28700
H461        H  0.81126582  0.42260495  0.98563331     0.33900
O462        O  0.79090535  0.44937390  0.98724992    -1.30100
O463        O  0.24498913  0.66307316  0.98094148    -0.85500
O464        O  0.24786991  0.45031582  0.14257461    -0.85700
O465        O  0.17273549  0.59207638  0.10812250    -0.87300
O466        O  0.31617349  0.59696261  0.10511522    -0.86100
O467        O  0.37462183  0.56666176  0.06067279    -0.85700
O468        O  0.11440339  0.56034576  0.06278580    -0.87100
O469        O  0.24690407  0.53074370  0.15050902    -0.85500
O470        O  0.24345331  0.65195703  0.06094497    -0.85100
Zr471      Zr  0.24446787  0.56803682  0.07423320     2.84300
O472        O  0.29334348  0.50363116  0.06711490    -1.07100
O473        O  0.19434432  0.57734450  0.01033977    -1.07800
C474        C  0.24664332  0.67785203  0.02394118     1.05200
C475        C  0.24606976  0.48835014  0.16704542     1.07500
C476        C  0.13003325  0.58651218  0.09655964     1.10500
C477        C  0.35886143  0.59249971  0.09447279     1.08300
H478        H  0.18070608  0.49669990  0.09760797     0.33900
O479        O  0.19890632  0.50042677  0.06955802    -1.28100
H480        H  0.30808890  0.60777134  0.01006899     0.33500
O481        O  0.28922257  0.57967890  0.00731382    -1.29700
O482        O  0.25474210  0.35928561  0.02037247    -0.85500
O483        O  0.23351291  0.57030511  0.85852877    -0.87000
O484        O  0.11456340  0.44797867  0.05519816    -0.85600
O485        O  0.37881585  0.45557841  0.04935577    -0.85600
O486        O  0.37188381  0.57246536  0.94511508    -0.85300
O487        O  0.10770484  0.56602775  0.95784541    -0.85100
O488        O  0.16555859  0.41987992  0.90553017    -0.85500
O489        O  0.31828880  0.43388368  0.89376702    -0.85000
O490        O  0.11151974  0.45571914  0.95181872    -0.86000
O491        O  0.37475253  0.47065730  0.93833709    -0.85200
O492        O  0.17406224  0.40231725  0.08367686    -0.85600
O493        O  0.16073939  0.61427107  0.92134916    -0.85300
O494        O  0.31184132  0.61475822  0.91240091    -0.85000
O495        O  0.32263904  0.40916631  0.08319919    -0.85400
O496        O  0.25008105  0.36899632  0.94027913    -0.85700
O497        O  0.23217550  0.48988909  0.84904397    -0.87000
Zr498      Zr  0.24741411  0.43586083  0.05840138     2.83100
Zr499      Zr  0.23853586  0.58616754  0.94259089     2.83500
Zr500      Zr  0.14990021  0.50856153  0.00504156     2.84100
Zr501      Zr  0.33826421  0.51508776  0.00020695     2.83400
Zr502      Zr  0.24213435  0.45302507  0.92624217     2.84200
O503        O  0.28738459  0.52123839  0.93499548    -1.07600
O504        O  0.19770804  0.44302688  0.99394682    -1.07100
C505        C  0.25561958  0.34379830  0.97770163     1.07600
C506        C  0.23007426  0.53271347  0.83332093     1.10200
C507        C  0.13087937  0.41294861  0.07941587     1.07700
C508        C  0.36501814  0.42098346  0.07599803     1.08100
C509        C  0.35501526  0.60429174  0.91706996     1.07700
C510        C  0.11885045  0.60092418  0.93083919     1.07200
C511        C  0.12369573  0.42652519  0.91999145     1.07700
C512        C  0.36096623  0.44407201  0.90424825     1.07200
H513        H  0.17219665  0.52004175  0.90974414     0.33900
O514        O  0.19319744  0.51770513  0.93625515    -1.28700
H515        H  0.31271115  0.42048439  0.98771074     0.33900
O516        O  0.29235522  0.44700082  0.99146771    -1.30100
C517        C  0.99212743  0.71031655  0.78811305     0.87500
C518        C  0.03551067  0.68166217  0.80132044    -0.52800
C519        C  0.04206093  0.67617717  0.84877028     0.10400
C520        C  0.00463858  0.70013081  0.87845402     0.21300
C521        C  0.95197855  0.68464735  0.81298820    -0.53500
C522        C  0.95854906  0.67887746  0.86053850     0.10500
C523        C  0.99804333  0.75681882  0.81421707    -0.53000
C524        C  0.00509636  0.75177813  0.86126537     0.11100
H525        H  0.05891596  0.66725581  0.77555203     0.15600
H526        H  0.00984249  0.69672278  0.91703882     0.01300
H527        H  0.92214887  0.67073714  0.79404531     0.15900
H528        H  0.99609869  0.79101517  0.79690680     0.15700
C529        C  0.98925083  0.31815543  0.78937793     0.87500
C530        C  0.95634111  0.35501181  0.80998930    -0.52800
C531        C  0.96332368  0.36318039  0.85729474     0.10400
C532        C  0.00303643  0.33348960  0.87853877     0.21300
C533        C  0.03801424  0.33679919  0.80091131    -0.53500
C534        C  0.04521012  0.34534165  0.84745182     0.10500
C535        C  0.98264957  0.27461650  0.82010397    -0.53000
C536        C  0.99033719  0.28223708  0.86645244     0.11100
H537        H  0.93034993  0.37251628  0.78859139     0.15600
H538        H  0.00857956  0.33877839  0.91681945     0.01300
H539        H  0.06383117  0.34437916  0.77437142     0.15900
H540        H  0.97274580  0.24028211  0.80627409     0.15700
C541        C  0.48367580  0.70980631  0.79131676     0.87500
C542        C  0.44991593  0.69033479  0.82786189    -0.52800
C543        C  0.45623533  0.64356221  0.83829606     0.10400
C544        C  0.49630485  0.62133324  0.81096971     0.21300
C545        C  0.53181888  0.69958791  0.81149974    -0.53500
C546        C  0.53836425  0.65342769  0.82196530     0.10500
C547        C  0.47787572  0.67777053  0.74893226    -0.53000
C548        C  0.48486605  0.63153114  0.75904265     0.11100
H549        H  0.42421992  0.71231914  0.84425517     0.15600
H550        H  0.50168353  0.58332218  0.81873033     0.01300
H551        H  0.55775206  0.72664990  0.81854878     0.15900
H552        H  0.46926580  0.69052027  0.71383224     0.15700
C553        C  0.49202553  0.72182437  0.19107403     0.87500
C554        C  0.53739893  0.71192820  0.16449872    -0.52800
C555        C  0.54573363  0.66472278  0.15830937     0.10400
C556        C  0.50927969  0.63228324  0.18085152     0.21300
C557        C  0.45472406  0.69484607  0.16315785    -0.53500
C558        C  0.46391457  0.64787945  0.15757709     0.10500
C559        C  0.49704798  0.69476581  0.23753028    -0.53000
C560        C  0.50674945  0.64820253  0.23243135     0.11100
H561        H  0.55955891  0.73948461  0.15028758     0.15600
H562        H  0.51613975  0.59399876  0.17725486     0.01300
H563        H  0.42487806  0.71206394  0.14741779     0.15900
H564        H  0.49242558  0.71098359  0.27164943     0.15700
C565        C  0.99427782  0.31917752  0.20371076     0.87500
C566        C  0.03195224  0.34612300  0.17722323    -0.52800
C567        C  0.02269097  0.35209167  0.13034216     0.10400
C568        C  0.97615870  0.33023543  0.11458194     0.21300
C569        C  0.94950597  0.34679850  0.19383695    -0.53500
C570        C  0.94016013  0.35288798  0.14703125     0.10500
C571        C  0.98801705  0.27280576  0.17729202    -0.53000
C572        C  0.97779948  0.27828171  0.13081105     0.11100
H573        H  0.06243557  0.36059124  0.19465217     0.15600
H574        H  0.96877286  0.33428327  0.07639989     0.01300
H575        H  0.92760102  0.36061163  0.22125394     0.15900
H576        H  0.99213336  0.23851060  0.19396459     0.15700
C577        C  0.99348462  0.70534874  0.19603229     0.87500
C578        C  0.94951794  0.68208221  0.17515451    -0.52800
C579        C  0.95074658  0.67768325  0.12691425     0.10400
C580        C  0.99449458  0.69826340  0.10479977     0.21300
C581        C  0.03306919  0.67521421  0.17770480    -0.53500
C582        C  0.03334264  0.67088019  0.12979053     0.10500
C583        C  0.99850370  0.75246206  0.17056819    -0.53000
C584        C  0.99817414  0.74901490  0.12306145     0.11100
H585        H  0.92210466  0.66809558  0.19701070     0.15600
H586        H  0.99530901  0.69567545  0.06584648     0.01300
H587        H  0.05706475  0.65758317  0.20129173     0.15900
H588        H  0.00201165  0.78599219  0.18864466     0.15700
C589        C  0.48682815  0.29879636  0.80340875     0.87500
C590        C  0.52580327  0.32437464  0.83053779    -0.52800
C591        C  0.51977933  0.37211195  0.83405239     0.10400
C592        C  0.47524140  0.38950097  0.80957422     0.21300
C593        C  0.44210197  0.31254294  0.82883417    -0.53500
C594        C  0.43606106  0.36025992  0.83234505     0.10500
C595        C  0.48391415  0.32382659  0.75583642    -0.53000
C596        C  0.47729684  0.37107655  0.75884845     0.11100
H597        H  0.55455412  0.30587493  0.84690687     0.15600
H598        H  0.47087950  0.42828354  0.81097615     0.01300
H599        H  0.41782416  0.28694574  0.84312182     0.15900
H600        H  0.48744693  0.30570864  0.72252178     0.15700
C601        C  0.49165786  0.31030565  0.19960021     0.87500
C602        C  0.46045298  0.32894623  0.15973167    -0.52800
C603        C  0.47008224  0.37472304  0.14670015     0.10400
C604        C  0.51096612  0.39642119  0.17433694     0.21300
C605        C  0.54121984  0.31662406  0.18137326    -0.53500
C606        C  0.55111040  0.36151623  0.16748569     0.10500
C607        C  0.48681443  0.34600522  0.23911117    -0.53000
C608        C  0.49724658  0.39101113  0.22615517     0.11100
H609        H  0.43326581  0.30754757  0.14398201     0.15600
H610        H  0.51925213  0.43338968  0.16416754     0.01300
H611        H  0.56528191  0.28770188  0.17735215     0.15900
H612        H  0.47751668  0.33630478  0.27482058     0.15700
O613        O  0.57932013  0.40119355  0.56249842    -0.85500
O614        O  0.44356086  0.48998118  0.34926868    -0.85700
O615        O  0.47429570  0.35844986  0.45210682    -0.87300
O616        O  0.59645785  0.44127818  0.40612747    -0.86100
O617        O  0.62180740  0.51724920  0.41874695    -0.85700
O618        O  0.41652201  0.37523425  0.50381281    -0.87100
O619        O  0.49702472  0.43159200  0.36263398    -0.85500
O620        O  0.56586031  0.37408447  0.48757294    -0.85100
Zr621      Zr  0.52064115  0.43196744  0.44498661     2.84300
O622        O  0.51751721  0.50999896  0.41805046    -1.07100
O623        O  0.49514489  0.43047980  0.52277274    -1.07800
C624        C  0.58228382  0.36999539  0.52968117     1.07600
C625        C  0.46844112  0.45483903  0.33626895     1.07500
C626        C  0.43893781  0.34675512  0.47752368     1.10500
C627        C  0.62663022  0.47524198  0.40266919     1.08300
H628        H  0.42416536  0.43871134  0.42776319     0.33900
O629        O  0.44381053  0.45855882  0.44706322    -1.28100
H630        H  0.59901192  0.46816584  0.49199924     0.33500
O631        O  0.56783557  0.48006983  0.49226946    -1.29700
O632        O  0.40196603  0.61356322  0.42922507    -0.85500
O633        O  0.53963626  0.52455873  0.64188664    -0.87000
O634        O  0.34784279  0.45834213  0.47731714    -0.85600
O635        O  0.55533636  0.59904036  0.38874070    -0.85600
O636        O  0.63721568  0.55521515  0.51042702    -0.85300
O637        O  0.42844354  0.41744996  0.60213913    -0.85100
O638        O  0.38715679  0.57258266  0.58274765    -0.85500
O639        O  0.51086634  0.65496128  0.54131628    -0.85000
O640        O  0.36041623  0.49748240  0.56848331    -0.86000
O641        O  0.57020765  0.63909854  0.49106317    -0.85200
O642        O  0.36040180  0.51300822  0.41894604    -0.85600
O643        O  0.50291302  0.43152150  0.62784669    -0.85300
O644        O  0.62384279  0.50326974  0.57103142    -0.85000
O645        O  0.48179017  0.58274843  0.36170178    -0.85400
O646        O  0.41766234  0.64006538  0.50394033    -0.85700
O647        O  0.48806697  0.58408600  0.62659901    -0.87000
Zr648      Zr  0.44127177  0.53721876  0.42063826     2.83100
Zr649      Zr  0.54267485  0.47841930  0.56972550     2.83500
Zr650      Zr  0.41899594  0.45700168  0.52526121     2.84100
Zr651      Zr  0.56518350  0.55803481  0.46467054     2.83400
Zr652      Zr  0.46356756  0.58252316  0.54491806     2.84200
O653        O  0.54050228  0.55665986  0.54294016    -1.07600
O654        O  0.41598983  0.53475135  0.49807776    -1.07100
C655        C  0.39982709  0.64444239  0.46255286     1.07600
C656        C  0.51500086  0.56015498  0.65412808     1.10200
C657        C  0.33452387  0.48374675  0.44185086     1.07700
C658        C  0.52236288  0.60136137  0.35763025     1.08100
C659        C  0.65027399  0.53098344  0.54670513     1.07700
C660        C  0.46191059  0.41417993  0.63264405     1.07200
C661        C  0.35620029  0.53923757  0.58525423     1.07700
C662        C  0.54741821  0.66690378  0.51803476     1.07200
H663        H  0.45443200  0.50444956  0.60389552     0.33900
O664        O  0.46610843  0.50508066  0.57225528    -1.28700
H665        H  0.48890190  0.61698759  0.45493554     0.33900
O666        O  0.48928745  0.58513459  0.46706612    -1.30100
O667        O  0.09954893  0.92670561  0.05946669    -0.85500
O668        O  0.01277771  0.06267052  0.84706481    -0.85700
O669        O  0.05717038  0.90799958  0.90719151    -0.87300
O670        O  0.13797656  0.03429343  0.94759887    -0.86100
O671        O  0.12412023  0.09359325  0.00013941    -0.85700
O672        O  0.98258517  0.88245092  0.91925750    -0.87100
O673        O  0.07067324  0.00935476  0.86209615    -0.85500
O674        O  0.12632443  0.94217060  0.98513201    -0.85100
Zr675      Zr  0.06719881  0.98625053  0.94402310     2.84300
O676        O  0.04106625  0.06440675  0.94609949    -1.07100
O677        O  0.02012819  0.93875875  0.99108644    -1.07800
C678        C  0.13051446  0.92471024  0.02682426     1.07600
C679        C  0.04796481  0.03751552  0.83475922     1.07500
C680        C  0.02383192  0.87728505  0.90378279     1.10500
C681        C  0.15064587  0.07016369  0.97257339     1.08300
H682        H  0.99030526  0.97655007  0.88453841     0.33900
O683        O  0.99093710  0.98861434  0.91618655    -1.28100
H684        H  0.10135711  0.01330437  0.03399126     0.33500
O685        O  0.07014328  0.01351906  0.02167053    -1.29700
O686        O  0.88531190  0.10024380  0.92793284    -0.85500
O687        O  0.97805692  0.96983653  0.14122109    -0.87000
O688        O  0.90385871  0.95177255  0.88632242    -0.85600
O689        O  0.04092180  0.16321715  0.97738734    -0.85600
O690        O  0.08279772  0.08031344  0.10186246    -0.85300
O691        O  0.94985614  0.86784490  0.00910292    -0.85100
O692        O  0.85024793  0.99714958  0.04036427    -0.85500
O693        O  0.93004781  0.12137190  0.08372997    -0.85000
O694        O  0.86361482  0.93740849  0.98841503    -0.86000
O695        O  0.00402922  0.14839448  0.07081658    -0.85200
O696        O  0.91921290  0.02644964  0.85845805    -0.85600
O697        O  0.00001088  0.88393161  0.06999229    -0.85300
O698        O  0.06935875  0.00446750  0.12726764    -0.85000
O699        O  0.98857454  0.14854767  0.91780566    -0.85400
O700        O  0.86093460  0.08598537  0.00332927    -0.85700
O701        O  0.91899105  0.02084590  0.12457197    -0.87000
Zr702      Zr  0.96423672  0.06646023  0.91825937     2.83100
Zr703      Zr  0.02362748  0.96530964  0.06850456     2.83500
Zr704      Zr  0.94351076  0.94132949  0.96338977     2.84100
Zr705      Zr  0.04383953  0.09077958  0.02434984     2.83400
Zr706      Zr  0.92135805  0.04486158  0.04357421     2.84200
O707        O  0.99734153  0.04290577  0.07164967    -1.07600
O708        O  0.91788593  0.01874116  0.96589033    -1.07100
C709        C  0.85487903  0.10171716  0.96136383     1.07600
C710        C  0.94225546  0.99423825  0.15282389     1.10200
C711        C  0.90122493  0.98492712  0.85470890     1.07700
C712        C  0.01604323  0.17586027  0.94154880     1.08100
C713        C  0.08623250  0.04618266  0.13232846     1.07700
C714        C  0.97410828  0.85585931  0.04569287     1.07200
C715        C  0.83739428  0.96064589  0.01639836     1.07700
C716        C  0.96302014  0.15238665  0.08756895     1.07200
H717        H  0.92749068  0.94688082  0.06132393     0.33900
O718        O  0.94664022  0.96674700  0.04173548    -1.28700
H719        H  0.95510205  0.12480406  0.99663946     0.33900
O720        O  0.96719198  0.09318544  0.99592023    -1.30100
C721        C  0.49947787  0.42872127  0.26141534    -0.15500
C722        C  0.46255399  0.43777108  0.28801196    -0.30600
H723        H  0.53347227  0.44204470  0.27150675     0.13600
H724        H  0.42840023  0.42547759  0.27718118     0.14100
C725        C  0.45367433  0.38838548  0.67679405    -0.15500
C726        C  0.47541218  0.40165633  0.71680938    -0.30600
H727        H  0.43161712  0.35720632  0.67615740     0.13600
H728        H  0.49419248  0.43495542  0.71825933     0.14100
C729        C  0.00396683  0.79161824  0.09426716    -0.15500
C730        C  0.97242736  0.80638371  0.06239041    -0.30600
H731        H  0.03147293  0.81533118  0.10580212     0.13600
H732        H  0.94411520  0.78341575  0.05144187     0.14100
C733        C  0.97262641  0.23743983  0.09908884    -0.15500
C734        C  0.95428028  0.19601808  0.11361612    -0.30600
H735        H  0.98740783  0.24046054  0.06423018     0.13600
H736        H  0.93605261  0.19353365  0.14674968     0.14100
C737        C  0.51033537  0.61571643  0.27316238    -0.15500
C738        C  0.53040209  0.62864248  0.31418433    -0.30600
H739        H  0.49376489  0.58134588  0.27006991     0.13600
H740        H  0.55033574  0.66119230  0.31643647     0.14100
C741        C  0.48005218  0.59656232  0.72175162    -0.15500
C742        C  0.51709472  0.57553250  0.70343118    -0.30600
H743        H  0.44793039  0.59779834  0.70153586     0.13600
H744        H  0.54980472  0.57446964  0.72256930     0.14100
C745        C  0.01886401  0.22537090  0.92544631    -0.15500
C746        C  0.98390322  0.24317333  0.89969680    -0.30600
H747        H  0.05070745  0.24534655  0.93065744     0.13600
H748        H  0.95264424  0.22220933  0.89441356     0.14100
C749        C  0.03215015  0.83257975  0.87947341    -0.15500
C750        C  0.00932808  0.79296318  0.89245605    -0.30600
H751        H  0.05412205  0.83282070  0.84872441     0.13600
H752        H  0.99029071  0.79184689  0.92518762     0.14100
C753        C  0.08498124  0.39905588  0.90047793    -0.15500
C754        C  0.08781406  0.36881972  0.86485435    -0.30600
H755        H  0.05145265  0.40561322  0.91598870     0.13600
H756        H  0.12018282  0.36422289  0.84640673     0.14100
C757        C  0.05305384  0.38004149  0.09866044    -0.15500
C758        C  0.09891143  0.38295041  0.10658818    -0.30600
H759        H  0.03755815  0.39802218  0.06866260     0.13600
H760        H  0.11438005  0.36168683  0.13438334     0.14100
C761        C  0.09745431  0.61353487  0.12428653    -0.15500
C762        C  0.06380626  0.63874141  0.10362505    -0.30600
H763        H  0.10543857  0.61717678  0.16135643     0.13600
H764        H  0.05879393  0.63644922  0.06578843     0.14100
C765        C  0.07974793  0.62736466  0.91003997    -0.15500
C766        C  0.08253429  0.65103340  0.86912549    -0.30600
H767        H  0.04665395  0.62466554  0.92765535     0.13600
H768        H  0.11435003  0.65019870  0.84914315     0.14100
C769        C  0.39814011  0.42424891  0.87560072    -0.15500
C770        C  0.39578761  0.38108234  0.85652631    -0.30600
H771        H  0.43037036  0.44406570  0.87469501     0.13600
H772        H  0.36507078  0.35940937  0.86167533     0.14100
C773        C  0.42783967  0.61644940  0.87261291    -0.15500
C774        C  0.38640864  0.63180800  0.88693598    -0.30600
H775        H  0.44013135  0.58213430  0.88413657     0.13600
H776        H  0.37233479  0.66421446  0.87258200     0.14100
C777        C  0.39001955  0.62171361  0.12350595    -0.15500
C778        C  0.43562738  0.61569592  0.12783393    -0.30600
H779        H  0.37366983  0.64904418  0.14406929     0.13600
H780        H  0.45222651  0.58626629  0.11072162     0.14100
C781        C  0.44222771  0.40293875  0.11230503    -0.15500
C782        C  0.39845714  0.39087215  0.10141408    -0.30600
H783        H  0.45610046  0.43645550  0.10007267     0.13600
H784        H  0.38382211  0.35891840  0.11639100     0.14100
C785        C  0.58887515  0.39921951  0.10196727    -0.15500
C786        C  0.59351915  0.37391330  0.14145573    -0.30600
H787        H  0.55410844  0.40797150  0.08987705     0.13600
H788        H  0.62715645  0.36193608  0.15375072     0.14100
C789        C  0.57894039  0.60658792  0.10417161    -0.15500
C790        C  0.58425085  0.64620119  0.12983162    -0.30600
H791        H  0.54519767  0.58962881  0.10170158     0.13600
H792        H  0.61669807  0.66575207  0.12912740     0.14100
C793        C  0.57632865  0.60683901  0.88154189    -0.15500
C794        C  0.58037788  0.63746493  0.84621864    -0.30600
H795        H  0.54214884  0.59425627  0.89155017     0.13600
H796        H  0.61366463  0.65292598  0.83725278     0.14100
C797        C  0.59580371  0.39473171  0.86941853    -0.15500
C798        C  0.55066529  0.40397953  0.86216335    -0.30600
H799        H  0.61094421  0.36467587  0.85194883     0.13600
H800        H  0.53605553  0.43609303  0.87615389     0.14100
C801        C  0.89930252  0.37901118  0.12948568    -0.15500
C802        C  0.90196357  0.40474634  0.08997577    -0.30600
H803        H  0.86773498  0.37856312  0.14990526     0.13600
H804        H  0.93501098  0.40837504  0.07239768     0.14100
C805        C  0.89519944  0.41469638  0.87167156    -0.15500
C806        C  0.93532542  0.39591885  0.88685183    -0.30600
H807        H  0.88262607  0.40634164  0.83667045     0.13600
H808        H  0.94616949  0.40145927  0.92307762     0.14100
C809        C  0.88232156  0.64263760  0.88148547    -0.15500
C810        C  0.92727473  0.65071801  0.89181345    -0.30600
H811        H  0.86713341  0.65959873  0.85075792     0.13600
H812        H  0.94182647  0.63658243  0.92424682     0.14100
C813        C  0.88080980  0.62794730  0.11387912    -0.15500
C814        C  0.91853642  0.64941184  0.09735724    -0.30600
H815        H  0.87024281  0.63323839  0.14990962     0.13600
H816        H  0.92671555  0.64576079  0.06035168     0.14100
C817        C  0.08185805  0.00262235  0.76441340    -0.15500
C818        C  0.06515757  0.04110835  0.78595948    -0.30600
H819        H  0.07691796  0.96821351  0.78068245     0.13600
H820        H  0.07007436  0.07586729  0.77049683     0.14100
C821        C  0.10012635  0.03049614  0.21607669    -0.15500
C822        C  0.11232719  0.05378628  0.17648619    -0.30600
H823        H  0.06708009  0.01206407  0.21772346     0.13600
H824        H  0.14356273  0.07529993  0.17577330     0.14100
C825        C  0.21366328  0.51657208  0.23933659    -0.15500
C826        C  0.23860958  0.48357781  0.21771169    -0.30600
H827        H  0.20151678  0.54694996  0.21932761     0.13600
H828        H  0.24909978  0.45172823  0.23619829     0.14100
C829        C  0.28634786  0.47856464  0.42449536    -0.15500
C830        C  0.26374054  0.51623240  0.40715587    -0.30600
H831        H  0.27169413  0.44338970  0.42070036     0.13600
H832        H  0.27922550  0.55105365  0.41099472     0.14100
C833        C  0.78363346  0.52242147  0.23806082    -0.15500
C834        C  0.76038402  0.49204944  0.21026229    -0.30600
H835        H  0.79606577  0.55557910  0.22343939     0.13600
H836        H  0.74967724  0.45834446  0.22515377     0.14100
C837        C  0.71029218  0.48718006  0.39325984    -0.15500
C838        C  0.67043725  0.46670168  0.37811303    -0.30600
H839        H  0.71190479  0.50333027  0.42779001     0.13600
H840        H  0.66929610  0.44717325  0.34538726     0.14100
C841        C  0.88427260  0.99802470  0.77013487    -0.15500
C842        C  0.87458400  0.97556364  0.81106554    -0.30600
H843        H  0.91587113  0.01873628  0.76710064     0.13600
H844        H  0.84522583  0.95156177  0.81317668     0.14100
C845        C  0.92496050  0.99186664  0.20177156    -0.15500
C846        C  0.89414736  0.02423704  0.21582714    -0.30600
H847        H  0.93399928  0.96222457  0.22429905     0.13600
H848        H  0.88532457  0.05332813  0.19243464     0.14100
C849        C  0.19923906  0.50793756  0.75624862    -0.15500
C850        C  0.22235062  0.53974976  0.78251202    -0.30600
H851        H  0.18578298  0.47604375  0.77267475     0.13600
H852        H  0.23407652  0.57257224  0.76655774     0.14100
C853        C  0.31271981  0.54826674  0.61045611    -0.15500
C854        C  0.27282363  0.52589083  0.59850114    -0.30600
H855        H  0.31400225  0.57119752  0.64090288     0.13600
H856        H  0.27051116  0.50603503  0.56600491     0.14100
C857        C  0.78227808  0.50162097  0.74941150    -0.15500
C858        C  0.75345386  0.53009388  0.77216673    -0.30600
H859        H  0.79980540  0.47333779  0.76824667     0.13600
H860        H  0.73792760  0.55993937  0.75394933     0.14100
C861        C  0.71918215  0.50053783  0.58677500    -0.15500
C862        C  0.69901049  0.53577710  0.56267423    -0.30600
H863        H  0.70061718  0.46728968  0.59068160     0.13600
H864        H  0.71653362  0.56958726  0.55887382     0.14100
C865        C  0.00561402  0.31158976  0.25488821    -0.15500
C866        C  0.97632322  0.28714586  0.28179780    -0.30600
H867        H  0.03764297  0.32560571  0.26973524     0.13600
H868        H  0.94374249  0.27483599  0.26661121     0.14100
C869        C  0.98190465  0.30669191  0.73826172    -0.15500
C870        C  0.00916723  0.27495165  0.71732114    -0.30600
H871        H  0.95441450  0.32404809  0.71853790     0.13600
H872        H  0.03802009  0.25963411  0.73673507     0.14100
C873        C  0.88255128  0.42781113  0.40751315    -0.15500
C874        C  0.85710455  0.42234051  0.36791142    -0.30600
H875        H  0.88341744  0.46170826  0.42510798     0.13600
H876        H  0.85898868  0.38972434  0.34820768     0.14100
C877        C  0.88083523  0.40736123  0.61929500    -0.15500
C878        C  0.86925327  0.45122196  0.60483245    -0.30600
H879        H  0.86493767  0.39271410  0.65056837     0.13600
H880        H  0.88175959  0.46436610  0.57133517     0.14100
C881        C  0.11845151  0.40330018  0.61625921    -0.15500
C882        C  0.12903842  0.44791476  0.60348140    -0.30600
H883        H  0.13460619  0.38820318  0.64742052     0.13600
H884        H  0.11596886  0.46165910  0.57023462     0.14100
C885        C  0.10564943  0.42934437  0.40647279    -0.15500
C886        C  0.13138805  0.42722454  0.36756451    -0.30600
H887        H  0.10265103  0.46271154  0.42464530     0.13600
H888        H  0.13216630  0.39457576  0.34777673     0.14100
C889        C  0.08899337  0.08771363  0.60012905    -0.15500
C890        C  0.12036246  0.09179041  0.63467238    -0.30600
H891        H  0.07649328  0.05287284  0.59026835     0.13600
H892        H  0.13447745  0.12641216  0.64301495     0.14100
C893        C  0.89662563  0.09166174  0.60925940    -0.15500
C894        C  0.86046951  0.09324079  0.63865381    -0.30600
H895        H  0.91132508  0.05748803  0.60136596     0.13600
H896        H  0.84322869  0.12668441  0.64394436     0.14100
C897        C  0.88937919  0.07605073  0.36833405    -0.15500
C898        C  0.87800169  0.12068023  0.37824892    -0.30600
H899        H  0.92119425  0.06089558  0.38209024     0.13600
H900        H  0.84842860  0.13687353  0.36095089     0.14100
C901        C  0.08983689  0.10798338  0.37646946    -0.15500
C902        C  0.13116445  0.10874128  0.35542320    -0.30600
H903        H  0.07001332  0.07534032  0.37672233     0.13600
H904        H  0.15357149  0.13948433  0.35875872     0.14100
C905        C  0.96718114  0.73977267  0.27182091    -0.15500
C906        C  0.99542255  0.71074483  0.24874824    -0.30600
H907        H  0.93850726  0.75643732  0.25332466     0.13600
H908        H  0.02287823  0.69296155  0.26816419     0.14100
C909        C  0.98438096  0.71817317  0.73591880    -0.15500
C910        C  0.01537940  0.74220529  0.70996740    -0.30600
H911        H  0.95255607  0.70537517  0.71961902     0.13600
H912        H  0.04788091  0.75328977  0.72616845     0.14100
C913        C  0.09705884  0.59119532  0.39830249    -0.15500
C914        C  0.13194321  0.59618671  0.36814453    -0.30600
H915        H  0.08865770  0.55624838  0.41173946     0.13600
H916        H  0.13886996  0.63067900  0.35280861     0.14100
C917        C  0.10529679  0.59968985  0.58532625    -0.15500
C918        C  0.13392614  0.60513904  0.62235631    -0.30600
H919        H  0.10022231  0.56482097  0.57038055     0.13600
H920        H  0.13623569  0.63893786  0.64005663     0.14100
C921        C  0.87447606  0.60578074  0.59062818    -0.15500
C922        C  0.84197985  0.60909269  0.62326422    -0.30600
H923        H  0.88179841  0.57116351  0.57632770     0.13600
H924        H  0.83591310  0.64240236  0.64074873     0.14100
C925        C  0.85681686  0.61963134  0.38777800    -0.15500
C926        C  0.85104894  0.57333744  0.39557606    -0.30600
H927        H  0.83612680  0.63639125  0.36038251     0.13600
H928        H  0.86878885  0.55654723  0.42496826     0.14100
C929        C  0.10551169  0.90415094  0.36403913    -0.15500
C930        C  0.09918144  0.95094598  0.35941586    -0.30600
H931        H  0.13339371  0.88777149  0.34487196     0.13600
H932        H  0.06937229  0.96725150  0.37540321     0.14100
C933        C  0.89617670  0.92618246  0.37781007    -0.15500
C934        C  0.86221783  0.92211697  0.34575398    -0.30600
H935        H  0.91083042  0.96080920  0.38518981     0.13600
H936        H  0.84480849  0.88855363  0.33992272     0.14100
C937        C  0.86539759  0.92427891  0.62635487    -0.15500
C938        C  0.90624615  0.92831781  0.60450024    -0.30600
H939        H  0.84658245  0.89104472  0.62370827     0.13600
H940        H  0.92382193  0.96227203  0.60342562     0.14100
C941        C  0.12941941  0.92086934  0.63367628    -0.15500
C942        C  0.09682223  0.92331832  0.60008423    -0.30600
H943        H  0.14682165  0.88760509  0.64020794     0.13600
H944        H  0.08208753  0.95764935  0.59212496     0.14100
C945        C  0.20758949  0.77214626  0.46958788    -0.15500
C946        C  0.23245249  0.79865179  0.49987164    -0.30600
H947        H  0.22368148  0.75938542  0.43776248     0.13600
H948        H  0.21617071  0.81299635  0.53088991     0.14100
C949        C  0.37476931  0.68856958  0.45402588    -0.15500
C950        C  0.38772079  0.72835130  0.47664628    -0.30600
H951        H  0.34366340  0.68773351  0.43225677     0.13600
H952        H  0.42067518  0.73016997  0.49531085     0.14100
C953        C  0.23266782  0.21273628  0.51285361    -0.15500
C954        C  0.20958957  0.24246927  0.48446085    -0.30600
H955        H  0.21457844  0.19463696  0.54108031     0.13600
H956        H  0.22731434  0.25884935  0.45499522     0.14100
C957        C  0.39060812  0.28354083  0.51007160    -0.15500
C958        C  0.42080942  0.29750507  0.47671819    -0.30600
H959        H  0.38279026  0.30721588  0.53878360     0.13600
H960        H  0.42847611  0.27473399  0.44728154     0.14100
C961        C  0.70368103  0.26961458  0.00405012    -0.15500
C962        C  0.72882664  0.29422998  0.97300027    -0.30600
H963        H  0.69045045  0.28672729  0.03521016     0.13600
H964        H  0.74053420  0.27728755  0.94110734     0.14100
C965        C  0.80973079  0.12469681  0.95298060    -0.15500
C966        C  0.77169742  0.11127952  0.97749012    -0.30600
H967        H  0.80888354  0.15608075  0.93094058     0.13600
H968        H  0.77151018  0.07810601  0.99676842     0.14100
C969        C  0.29126092  0.26945897  0.00184801    -0.15500
C970        C  0.26488153  0.29340429  0.97096247    -0.30600
H971        H  0.30658997  0.28789113  0.03165708     0.13600
H972        H  0.25126801  0.27597635  0.93977874     0.14100
C973        C  0.21802665  0.11107200  0.00540941    -0.15500
C974        C  0.19928130  0.08634160  0.96978658    -0.30600
H975        H  0.19805400  0.11675606  0.03701854     0.13600
H976        H  0.21849398  0.08094634  0.93766046     0.14100
C977        C  0.75129018  0.81314442  0.48796822    -0.15500
C978        C  0.77760648  0.78533728  0.51542675    -0.30600
H979        H  0.76656193  0.83121157  0.45805868     0.13600
H980        H  0.76241192  0.76919182  0.54645572     0.14100
C981        C  0.59992230  0.73078159  0.49437648    -0.15500
C982        C  0.56538789  0.71604436  0.52236764    -0.30600
H983        H  0.61277687  0.70701874  0.46774087     0.13600
H984        H  0.55246696  0.73881573  0.54976994     0.14100
C985        C  0.68954555  0.75526768  0.02464512    -0.15500
C986        C  0.71112563  0.73025520  0.99215251    -0.30600
H987        H  0.67736932  0.73800553  0.05646384     0.13600
H988        H  0.72196793  0.74798828  0.96004442     0.14100
C989        C  0.78919429  0.94322106  0.02194358    -0.15500
C990        C  0.77394171  0.90589704  0.99720739    -0.30600
H991        H  0.76734288  0.95880523  0.04844745     0.13600
H992        H  0.79674802  0.88932355  0.97215957     0.14100
C993        C  0.28359438  0.75246961  0.00388074    -0.15500
C994        C  0.25547563  0.72799967  0.03220971    -0.30600
H995        H  0.29889979  0.73497172  0.97394543     0.13600
H996        H  0.24162751  0.74433171  0.06349307     0.14100
C997        C  0.21421244  0.91207811  0.01641631    -0.15500
C998        C  0.17394618  0.89957189  0.03702774    -0.30600
H999        H  0.21703215  0.94522511  0.99731003     0.13600
H1000       H  0.17227463  0.86851406  0.05949093     0.14100
C1001       C  0.25465269  0.00013244  0.29153134    -0.15500
C1002       C  0.28127783  0.02964031  0.26635393    -0.30600
H1003       H  0.26962149  0.96863178  0.30719437     0.13600
H1004       H  0.26603068  0.06194040  0.25268069     0.14100
C1005       C  0.71322460  0.00923935  0.25974649    -0.15500
C1006       C  0.73931049  0.03446254  0.28930763    -0.30600
H1007       H  0.72842819  0.97969243  0.24138533     0.13600
H1008       H  0.72392297  0.06266064  0.30949976     0.14100
C1009       C  0.39657953  0.89623628  0.40557818    -0.15500
C1010       C  0.35917312  0.86882167  0.39984281    -0.30600
H1011       H  0.41194099  0.89970863  0.44044578     0.13600
H1012       H  0.34087196  0.86773602  0.36631556     0.14100
C1013       C  0.60506155  0.88989255  0.39428105    -0.15500
C1014       C  0.59732367  0.88373099  0.44027805    -0.30600
H1015       H  0.63258916  0.87015907  0.37785333     0.13600
H1016       H  0.56787809  0.90016838  0.45681420     0.14100
C1017       C  0.39858075  0.12244550  0.41887751    -0.15500
C1018       C  0.36258079  0.15166028  0.41350421    -0.30600
H1019       H  0.41258429  0.11542950  0.45378700     0.13600
H1020       H  0.34580579  0.15592510  0.37940378     0.14100
C1021       C  0.50561349  0.24035794  0.24966190    -0.15500
C1022       C  0.48076541  0.26078141  0.21516684    -0.30600
H1023       H  0.53393261  0.25976154  0.26618827     0.13600
H1024       H  0.45416695  0.24075854  0.19655113     0.14100
C1025       C  0.50586774  0.80065574  0.22671547    -0.15500
C1026       C  0.48005449  0.77350309  0.19818282    -0.30600
H1027       H  0.53695165  0.78544991  0.24224735     0.13600
H1028       H  0.44972502  0.78831319  0.18089782     0.14100
C1029       C  0.62954511  0.11869412  0.06360190    -0.15500
C1030       C  0.61832396  0.13312841  0.10730798    -0.30600
H1031       H  0.61615631  0.08520824  0.05083261     0.13600
H1032       H  0.63460541  0.16459185  0.12149293     0.14100
C1033       C  0.61067632  0.93649186  0.08932917    -0.15500
C1034       C  0.64397389  0.90517322  0.09844075    -0.30600
H1035       H  0.60247038  0.94631744  0.05321888     0.13600
H1036       H  0.65043993  0.89301921  0.13419486     0.14100
C1037       C  0.37950394  0.92628508  0.09141087    -0.15500
C1038       C  0.35319082  0.88743048  0.09773683    -0.30600
H1039       H  0.38210648  0.94219804  0.05672201     0.13600
H1040       H  0.35331294  0.86931344  0.13149321     0.14100
C1041       C  0.36583809  0.12310515  0.06850874    -0.15500
C1042       C  0.37766830  0.13921482  0.11130972    -0.30600
H1043       H  0.37817721  0.08896934  0.05711853     0.13600
H1044       H  0.36217894  0.17116483  0.12462699     0.14100
C1045       C  0.75741072  0.21734435  0.53116504    -0.15500
C1046       C  0.77940193  0.24593029  0.50115561    -0.30600
H1047       H  0.77614372  0.20060645  0.56001558     0.13600
H1048       H  0.76053230  0.26094402  0.47143559     0.14100
C1049       C  0.62944668  0.15522431  0.42683268    -0.15500
C1050       C  0.59343379  0.12510928  0.42621371    -0.30600
H1051       H  0.64865994  0.16126727  0.39470896     0.13600
H1052       H  0.57677127  0.11684178  0.45936319     0.14100
C1053       C  0.59952551  0.28601217  0.51711164    -0.15500
C1054       C  0.60766638  0.32651093  0.54059527    -0.30600
H1055       H  0.57004350  0.28300481  0.49329827     0.13600
H1056       H  0.63469722  0.32824834  0.56736418     0.14100
C1057       C  0.27153740  0.98122938  0.74536075    -0.15500
C1058       C  0.24910548  0.01572427  0.72230998    -0.30600
H1059       H  0.25408093  0.94798271  0.75271547     0.13600
H1060       H  0.26787822  0.04765852  0.71266780     0.14100
C1061       C  0.72511215  0.99575872  0.69821437    -0.15500
C1062       C  0.70181535  0.02653987  0.72465914    -0.30600
H1063       H  0.70671053  0.96580399  0.68311180     0.13600
H1064       H  0.71938451  0.05785401  0.73786403     0.14100
C1065       C  0.37859172  0.13116953  0.56860799    -0.15500
C1066       C  0.36457642  0.11743671  0.61144822    -0.30600
H1067       H  0.41211960  0.12011907  0.55594407     0.13600
H1068       H  0.33300309  0.13156306  0.62590715     0.14100
C1069       C  0.57332869  0.12355939  0.59036930    -0.15500
C1070       C  0.61410985  0.14535272  0.59620896    -0.30600
H1071       H  0.55728941  0.12227088  0.55570074     0.13600
H1072       H  0.63140318  0.14315937  0.63028206     0.14100
C1073       C  0.62238127  0.86810459  0.59297915    -0.15500
C1074       C  0.58656220  0.89765782  0.58719983    -0.30600
H1075       H  0.63968518  0.86483902  0.62691078     0.13600
H1076       H  0.57173286  0.90294391  0.55233185     0.14100
C1077       C  0.37467949  0.87968873  0.60235374    -0.15500
C1078       C  0.38408474  0.87289839  0.55661055    -0.30600
H1079       H  0.34556434  0.86091291  0.61763752     0.13600
H1080       H  0.41523584  0.88837075  0.54187257     0.14100
C1081       C  0.49456115  0.24647714  0.79805578    -0.15500
C1082       C  0.46505498  0.21985444  0.77271558    -0.30600
H1083       H  0.52530832  0.23062693  0.81355802     0.13600
H1084       H  0.43340040  0.23546861  0.75898658     0.14100
C1085       C  0.50568807  0.78352977  0.75121938    -0.15500
C1086       C  0.47662985  0.76039311  0.77974610    -0.30600
H1087       H  0.53514124  0.76575226  0.73603200     0.13600
H1088       H  0.44878179  0.77895686  0.79700829     0.14100
C1089       C  0.37762343  0.09076058  0.91892581    -0.15500
C1090       C  0.35216427  0.12980105  0.91246018    -0.30600
H1091       H  0.38131307  0.07524791  0.95373658     0.13600
H1092       H  0.35192930  0.14748516  0.87847043     0.14100
C1093       C  0.38315204  0.88158269  0.90671359    -0.15500
C1094       C  0.35919990  0.90113526  0.94195389    -0.30600
H1095       H  0.37977663  0.84438561  0.89912757     0.13600
H1096       H  0.36177158  0.93893929  0.94746337     0.14100
C1097       C  0.61431078  0.88936676  0.89788600    -0.15500
C1098       C  0.62258133  0.90226267  0.94272351    -0.30600
H1099       H  0.63126107  0.85828640  0.88430492     0.13600
H1100       H  0.60901183  0.93553787  0.95507983     0.14100
C1101       C  0.62986167  0.14095213  0.90612623    -0.15500
C1102       C  0.60560119  0.10068367  0.90986572    -0.30600
H1103       H  0.62719442  0.16208667  0.87425566     0.13600
H1104       H  0.60564707  0.08182356  0.94319879     0.14100
loop_ 
_geom_bond_atom_site_label_1 
_geom_bond_atom_site_label_2 
_geom_bond_distance 
_geom_bond_site_symmetry_2 
_ccdc_geom_bond_type 
O1          Zr37   2.417   1_545  S
O1           C12   1.288       .  A
O2          Zr36   2.420       .  S
O2           C13   1.288       .  A
O3           Zr9   2.432       .  S
O3           C14   1.290       .  A
O4           Zr9   2.454       .  S
O4           C15   1.296       .  A
O5          Zr39   2.421       .  S
O5           C15   1.287       .  A
O6          Zr38   2.456       .  S
O6           C14   1.296   1_565  A
O7           Zr9   2.474       .  S
O7           C13   1.301       .  A
O8           Zr9   2.475       .  S
O8           C12   1.299       .  A
Zr9          O10   2.342       .  S
Zr9          O11   2.348       .  S
Zr9          O19   2.347       .  S
Zr9          O17   2.353       .  S
O10         Zr36   2.356       .  S
O10         Zr39   2.334       .  S
O11         Zr37   2.355   1_545  S
O11         Zr38   2.333   1_545  S
C12        C1102   1.477       .  S
C13        C1069   1.479       .  S
C14        C1062   1.477       .  S
C15        C1082   1.470       .  S
H16          O17   0.965       .  S
O17         Zr36   2.351       .  S
O17         Zr38   2.338   1_545  S
H18          O19   0.966       .  S
O19         Zr37   2.351   1_545  S
O19         Zr39   2.341       .  S
O20         Zr36   2.482   1_565  S
O20          C43   1.300       .  A
O21         Zr37   2.461       .  S
O21          C44   1.295       .  A
O22         Zr38   2.432       .  S
O22          C45   1.291       .  A
O23         Zr39   2.419       .  S
O23          C46   1.288       .  A
O24         Zr39   2.429       .  S
O24          C47   1.291       .  A
O25         Zr38   2.457       .  S
O25          C48   1.295       .  A
O26         Zr40   2.403       .  S
O26          C49   1.287       .  A
O27         Zr40   2.432       .  S
O27          C50   1.289       .  A
O28         Zr38   2.422       .  S
O28          C49   1.288       .  A
O29         Zr39   2.429       .  S
O29          C50   1.292   1_545  A
O30         Zr36   2.444   1_565  S
O30          C45   1.293       .  A
O31         Zr37   2.461       .  S
O31          C48   1.297       .  A
O32         Zr37   2.442   1_545  S
O32          C47   1.292       .  A
O33         Zr36   2.455       .  S
O33          C46   1.295       .  A
O34         Zr40   2.426       .  S
O34          C43   1.289       .  A
O35         Zr40   2.423       .  S
O35          C44   1.288       .  A
Zr36         O42   2.332   1_545  S
Zr36         O54   2.326   1_545  S
Zr37         O41   2.337       .  S
Zr37         O52   2.332       .  S
Zr38         O42   2.346       .  S
Zr38         O52   2.355       .  S
Zr39         O41   2.328   1_545  S
Zr39         O54   2.341   1_545  S
Zr40         O41   2.325       .  S
Zr40         O42   2.332       .  S
Zr40         O54   2.331       .  S
Zr40         O52   2.347       .  S
C43        C1077   1.488       .  S
C44        C1093   1.472       .  S
C45        C1074   1.474       .  S
C46        C1066   1.471       .  S
C47        C1089   1.473       .  S
C48        C1097   1.490       .  S
C49        C1085   1.451       .  S
C50        C1057   1.470       .  S
H51          O52   0.966       .  S
H53          O54   0.965       .  S
C55          C56   1.523       .  S
C55          C61   1.524       .  S
C55          C59   1.536       .  S
C55        C1045   1.499       .  S
C56          H63   1.087       .  S
C56          C57   1.362       .  D
C57          C58   1.555       .  S
C57        C1070   1.481       .  S
C58          C62   1.549       .  S
C58          C60   1.557       .  S
C58          H64   1.110       .  S
C59          H65   1.087       .  S
C59          C60   1.364       .  D
C60        C1049   1.498       .  S
C61          H66   1.086       .  S
C61          C62   1.362       .  D
C62        C1053   1.479       .  S
O67        Zr103   2.493       .  S
O67          C78   1.303       .  A
O68        Zr102   2.456       .  S
O68          C79   1.296       .  A
O69         Zr75   2.435       .  S
O69          C80   1.290       .  A
O70         Zr75   2.450   1_565  S
O70          C81   1.294       .  A
O71        Zr105   2.417       .  S
O71          C81   1.287       .  A
O72        Zr104   2.426       .  S
O72          C80   1.290       .  A
O73         Zr75   2.406   1_565  S
O73          C79   1.286       .  A
O74         Zr75   2.422       .  S
O74          C78   1.288       .  A
Zr75         O76   2.339   1_545  S
Zr75         O77   2.336       .  S
Zr75         O85   2.330       .  S
Zr75         O83   2.331       .  S
O76        Zr102   2.336       .  S
O76        Zr105   2.328       .  S
O77        Zr103   2.336       .  S
O77        Zr104   2.332       .  S
C78        C1050   1.493       .  S
C79        C1009   1.467       .  S
C80        C1017   1.468       .  S
C81        C1013   1.471       .  S
H82          O83   0.965       .  S
O83        Zr102   2.352   1_545  S
O83        Zr104   2.346       .  S
H84          O85   0.966       .  S
O85        Zr103   2.336       .  S
O85        Zr105   2.338   1_545  S
O86        Zr102   2.422       .  S
O86         C109   1.291       .  A
O87        Zr103   2.457       .  S
O87         C110   1.296       .  A
O88        Zr104   2.415       .  S
O88         C111   1.287       .  A
O89        Zr105   2.389       .  S
O89         C112   1.281       .  A
O90        Zr105   2.392       .  S
O90         C113   1.281   1_565  A
O91        Zr104   2.443       .  S
O91         C114   1.293       .  A
O92        Zr106   2.446       .  S
O92         C115   1.293       .  A
O93        Zr106   2.420   1_565  S
O93         C116   1.287       .  A
O94        Zr104   2.419       .  S
O94         C115   1.287       .  A
O95        Zr105   2.425       .  S
O95         C116   1.291       .  A
O96        Zr102   2.479       .  S
O96         C111   1.300   1_565  A
O97        Zr103   2.417       .  S
O97         C114   1.287       .  A
O98        Zr103   2.454       .  S
O98         C113   1.296       .  A
O99        Zr102   2.505       .  S
O99         C112   1.304       .  A
O100       Zr106   2.461   1_565  S
O100        C109   1.296       .  A
O101       Zr106   2.467       .  S
O101        C110   1.298       .  A
Zr102       O108   2.359   1_565  S
Zr102       O120   2.355       .  S
Zr103       O107   2.335       .  S
Zr103       O118   2.368       .  S
Zr104       O108   2.339       .  S
Zr104       O118   2.338       .  S
Zr105       O107   2.312   1_565  S
Zr105       O120   2.334       .  S
Zr106       O107   2.342       .  S
Zr106       O108   2.339       .  S
Zr106       O120   2.345   1_545  S
Zr106       O118   2.340       .  S
C109       C1037   1.476       .  S
C110       C1030   1.488       .  S
C111       C1002   1.473       .  S
C112       C1025   1.478       .  S
C113       C1005   1.457       .  S
C114       C1021   1.459       .  S
C115       C1042   1.469       .  S
C116       C1033   1.467       .  S
H117        O118   0.965       .  S
H119        O120   0.966       .  S
C121        C122   1.532   1_554  S
C121        C127   1.521       .  S
C121        C125   1.538       .  S
C121        C993   1.502       .  S
C122        H129   1.083       .  S
C122        C123   1.369       .  D
C123        C124   1.542   1_556  S
C123       C1094   1.496       .  S
C124        C128   1.547       .  S
C124        C126   1.543       .  S
C124        H130   1.110       .  S
C125        H131   1.086       .  S
C125        C126   1.370       .  D
C126       C1038   1.479       .  S
C127        H132   1.087       .  S
C127        C128   1.358       .  D
C128        C997   1.481       .  S
C133        C134   1.521       .  S
C133        C139   1.528       .  S
C133        C137   1.550   1_554  S
C133        C985   1.509       .  S
C134        H141   1.087       .  S
C134        C135   1.356       .  D
C135        C136   1.539       .  S
C135       C1034   1.460       .  S
C136        C140   1.543       .  S
C136        C138   1.543   1_554  S
C136        H142   1.111       .  S
C137        H143   1.086       .  S
C137        C138   1.377       .  D
C138       C1098   1.495       .  S
C139        H144   1.087       .  S
C139        C140   1.358       .  D
C140        C990   1.473   1_554  S
C145        C146   1.534       .  S
C145        C151   1.523       .  S
C145        C149   1.539       .  S
C145        C977   1.513       .  S
C146        H153   1.086       .  S
C146        C147   1.372       .  D
C147        C148   1.537       .  S
C147       C1014   1.482       .  S
C148        C152   1.545       .  S
C148        C150   1.543       .  S
C148        H154   1.111       .  S
C149        H155   1.086       .  S
C149        C150   1.368       .  D
C150       C1073   1.478       .  S
C151        H156   1.087       .  S
C151        C152   1.359       .  D
C152        C981   1.477       .  S
C157        C158   1.533   1_556  S
C157        C163   1.523   1_556  S
C157        C161   1.537       .  S
C157        C969   1.504   1_556  S
C158        H165   1.085       .  S
C158        C159   1.369       .  D
C159        C160   1.539   1_554  S
C159       C1041   1.482       .  S
C160        C164   1.541       .  S
C160        C162   1.541       .  S
C160        H166   1.110       .  S
C161        H167   1.086       .  S
C161        C162   1.368       .  D
C162       C1090   1.477       .  S
C163        H168   1.087       .  S
C163        C164   1.357   1_554  D
C164        C973   1.468   1_556  S
C169        C170   1.538       .  S
C169        C175   1.523       .  S
C169        C173   1.532   1_556  S
C169        C961   1.502   1_556  S
C170        H177   1.086       .  S
C170        C171   1.367       .  D
C171        C172   1.549       .  S
C171       C1101   1.486       .  S
C172        C176   1.551       .  S
C172        C174   1.553   1_556  S
C172        H178   1.109       .  S
C173        H179   1.084       .  S
C173        C174   1.370       .  D
C174       C1029   1.505       .  S
C175        H180   1.087       .  S
C175        C176   1.357       .  D
C176        C966   1.484       .  S
C181        C182   1.537       .  S
C181        C187   1.527       .  S
C181        C185   1.532       .  S
C181        C953   1.506       .  S
C182        H189   1.086       .  S
C182        C183   1.366       .  D
C183        C184   1.540       .  S
C183       C1018   1.474       .  S
C184        C188   1.538       .  S
C184        C186   1.541       .  S
C184        H190   1.110       .  S
C185        H191   1.085       .  S
C185        C186   1.371       .  D
C186       C1065   1.485       .  S
C187        H192   1.087       .  S
C187        C188   1.360       .  D
C188        C957   1.474       .  S
C193        C194   1.541       .  S
C193        C199   1.523       .  S
C193        C197   1.538       .  S
C193        C946   1.507       .  S
C194        H201   1.085       .  S
C194        C195   1.373       .  D
C195        C196   1.543       .  S
C195       C1078   1.501       .  S
C196        C200   1.541       .  S
C196        C198   1.544       .  S
C196        H202   1.110       .  S
C197        H203   1.086       .  S
C197        C198   1.365       .  D
C198       C1010   1.477       .  S
C199        H204   1.087       .  S
C199        C200   1.357       .  D
C200        C950   1.473       .  S
O205       Zr241   2.473       .  S
O205        C216   1.299       .  A
O206       Zr240   2.432       .  S
O206        C217   1.290       .  A
O207       Zr213   2.491       .  S
O207        C218   1.301       .  A
O208       Zr213   2.468       .  S
O208        C219   1.299       .  A
O209       Zr243   2.449       .  S
O209        C219   1.293       .  A
O210       Zr242   2.374       .  S
O210        C218   1.279       .  A
O211       Zr213   2.459       .  S
O211        C217   1.297   1_655  A
O212       Zr213   2.414       .  S
O212        C216   1.287       .  A
Zr213       O214   2.348   1_655  S
Zr213       O215   2.338       .  S
Zr213       O223   2.365       .  S
Zr213       O221   2.336       .  S
O214       Zr240   2.328       .  S
O214       Zr243   2.351   1_455  S
O215       Zr241   2.340       .  S
O215       Zr242   2.335       .  S
C216        C978   1.472       .  S
C217        C910   1.475       .  S
C218        C921   1.470       .  S
C219        C938   1.490       .  S
H220        O221   0.965       .  S
O221       Zr240   2.364   1_655  S
O221       Zr242   2.349       .  S
H222        O223   0.965       .  S
O223       Zr241   2.328       .  S
O223       Zr243   2.335       .  S
O224       Zr240   2.443       .  S
O224        C247   1.295       .  A
O225       Zr241   2.439       .  S
O225        C248   1.291       .  A
O226       Zr242   2.445   1_455  S
O226        C249   1.293       .  A
O227       Zr243   2.397   1_455  S
O227        C250   1.283       .  A
O228       Zr243   2.406       .  S
O228        C251   1.285       .  A
O229       Zr242   2.496       .  S
O229        C252   1.303       .  A
O230       Zr244   2.474       .  S
O230        C253   1.299       .  A
O231       Zr244   2.430       .  S
O231        C254   1.291       .  A
O232       Zr242   2.414   1_455  S
O232        C253   1.285       .  A
O233       Zr243   2.477   1_455  S
O233        C254   1.299       .  A
O234       Zr240   2.448       .  S
O234        C249   1.295       .  A
O235       Zr241   2.399       .  S
O235        C252   1.284       .  A
O236       Zr241   2.442       .  S
O236        C251   1.292       .  A
O237       Zr240   2.503       .  S
O237        C250   1.304       .  A
O238       Zr244   2.439       .  S
O238        C247   1.292       .  A
O239       Zr244   2.451       .  S
O239        C248   1.297   1_455  A
Zr240       O246   2.356       .  S
Zr240       O258   2.340       .  S
Zr241       O245   2.336       .  S
Zr241       O256   2.368       .  S
Zr242       O246   2.337   1_655  S
Zr242       O256   2.316       .  S
Zr243       O245   2.333       .  S
Zr243       O258   2.325   1_655  S
Zr244       O245   2.353   1_455  S
Zr244       O246   2.321       .  S
Zr244       O258   2.361       .  S
Zr244       O256   2.340   1_455  S
C247        C945   1.469       .  S
C248        C905   1.473       .  S
C249        C917   1.477       .  S
C250        C942   1.488       .  S
C251        C933   1.466       .  S
C252        C925   1.480       .  S
C253        C913   1.484       .  S
C254        C929   1.485       .  S
H255        O256   0.965       .  S
H257        O258   0.965       .  S
O259       Zr295   2.401       .  S
O259        C270   1.284       .  A
O260       Zr294   2.426       .  S
O260        C271   1.290       .  A
O261       Zr267   2.479       .  S
O261        C272   1.300       .  A
O262       Zr267   2.443       .  S
O262        C273   1.293       .  A
O263       Zr297   2.469       .  S
O263        C273   1.298       .  A
O264       Zr296   2.449       .  S
O264        C272   1.293       .  A
O265       Zr267   2.434       .  S
O265        C271   1.292   1_655  A
O266       Zr267   2.443       .  S
O266        C270   1.294       .  A
Zr267       O268   2.348       .  S
Zr267       O269   2.337       .  S
Zr267       O277   2.345       .  S
Zr267       O275   2.337       .  S
O268       Zr294   2.348   1_655  S
O268       Zr297   2.339       .  S
O269       Zr295   2.335       .  S
O269       Zr296   2.324       .  S
C270       C1046   1.457       .  S
C271        C870   1.462       .  S
C272        C893   1.496       .  S
C273        C877   1.483       .  S
H274        O275   0.965       .  S
O275       Zr294   2.338   1_655  S
O275       Zr296   2.339       .  S
H276        O277   0.965       .  S
O277       Zr295   2.326       .  S
O277       Zr297   2.348       .  S
O278       Zr294   2.449       .  S
O278        C301   1.295       .  A
O279       Zr295   2.398       .  S
O279        C302   1.282       .  A
O280       Zr296   2.411   1_455  S
O280        C303   1.285       .  A
O281       Zr297   2.461   1_455  S
O281        C304   1.297       .  A
O282       Zr297   2.452       .  S
O282        C305   1.294       .  A
O283       Zr296   2.431       .  S
O283        C306   1.290       .  A
O284       Zr298   2.481       .  S
O284        C307   1.300       .  A
O285       Zr298   2.470       .  S
O285        C308   1.299       .  A
O286       Zr296   2.413   1_455  S
O286        C307   1.287       .  A
O287       Zr297   2.438   1_455  S
O287        C308   1.291       .  A
O288       Zr294   2.476       .  S
O288        C303   1.301       .  A
O289       Zr295   2.417       .  S
O289        C306   1.287       .  A
O290       Zr295   2.428       .  S
O290        C305   1.290       .  A
O291       Zr294   2.447       .  S
O291        C304   1.293       .  A
O292       Zr298   2.418       .  S
O292        C301   1.287       .  A
O293       Zr298   2.454       .  S
O293        C302   1.295   1_455  A
Zr294       O300   2.331       .  S
Zr294       O312   2.343       .  S
Zr295       O299   2.333       .  S
Zr295       O310   2.327       .  S
Zr296       O300   2.342   1_655  S
Zr296       O310   2.349       .  S
Zr297       O299   2.347       .  S
Zr297       O312   2.358   1_655  S
Zr298       O299   2.346   1_455  S
Zr298       O300   2.354       .  S
Zr298       O312   2.347       .  S
Zr298       O310   2.341   1_455  S
C301        C954   1.467       .  S
C302        C866   1.461       .  S
C303        C889   1.481       .  S
C304        C881   1.483       .  S
C305        C873   1.478       .  S
C306        C898   1.459       .  S
C307        C901   1.477       .  S
C308        C885   1.485       .  S
H309        O310   0.966       .  S
H311        O312   0.965       .  S
C313        C314   1.533       .  S
C313        C319   1.524       .  S
C313        C317   1.533       .  S
C313        C857   1.498       .  S
C314        H321   1.085       .  S
C314        C315   1.370       .  D
C315        C316   1.550       .  S
C315        C878   1.498       .  S
C316        C320   1.544       .  S
C316        C318   1.554       .  S
C316        H322   1.110       .  S
C317        H323   1.087       .  S
C317        C318   1.359       .  D
C318        C922   1.482       .  S
C319        H324   1.087       .  S
C319        C320   1.358       .  D
C320        C861   1.473       .  S
C325        C326   1.536       .  S
C325        C331   1.527       .  S
C325        C329   1.538       .  S
C325        C849   1.509       .  S
C326        H333   1.086       .  S
C326        C327   1.366       .  D
C327        C328   1.544       .  S
C327        C918   1.479       .  S
C328        C332   1.548       .  S
C328        C330   1.543       .  S
C328        H334   1.111       .  S
C329        H335   1.085       .  S
C329        C330   1.370       .  D
C330        C882   1.496       .  S
C331        H336   1.087       .  S
C331        C332   1.362       .  D
C332        C854   1.483       .  S
C337        C338   1.537   1_545  S
C337        C343   1.526       .  S
C337        C341   1.520       .  S
C337       C1006   1.500       .  S
C338        H345   1.086       .  S
C338        C339   1.365       .  D
C339        C340   1.544   1_565  S
C339        C934   1.474       .  S
C340        C344   1.539       .  S
C340        C342   1.540       .  S
C340        H346   1.111   1_545  S
C341        H347   1.085       .  S
C341        C342   1.366       .  D
C342        C897   1.478       .  S
C343        H348   1.087       .  S
C343        C344   1.361       .  D
C344        C846   1.472       .  S
C349        C350   1.537       .  S
C349        C355   1.525   1_545  S
C349        C353   1.533   1_545  S
C349       C1061   1.514   1_545  S
C350        H357   1.086       .  S
C350        C351   1.368       .  D
C351        C352   1.557       .  S
C351        C894   1.501       .  S
C352        C356   1.555   1_545  S
C352        C354   1.552   1_545  S
C352        H358   1.110       .  S
C353        H359   1.087       .  S
C353        C354   1.365       .  D
C354        C937   1.492       .  S
C355        H360   1.086       .  S
C355        C356   1.364       .  D
C356        C841   1.487       .  S
C361        C362   1.539       .  S
C361        C367   1.526       .  S
C361        C365   1.544       .  S
C361        C833   1.523       .  S
C362        H369   1.085       .  S
C362        C363   1.373       .  D
C363        C364   1.536       .  S
C363        C926   1.492       .  S
C364        C368   1.548       .  S
C364        C366   1.538       .  S
C364        H370   1.111       .  S
C365        H371   1.086       .  S
C365        C366   1.372       .  D
C366        C874   1.482       .  S
C367        H372   1.086       .  S
C367        C368   1.360       .  D
C368        C837   1.483       .  S
C373        C374   1.533       .  S
C373        C379   1.524       .  S
C373        C377   1.528       .  S
C373        C825   1.496       .  S
C374        H381   1.086       .  S
C374        C375   1.367       .  D
C375        C376   1.555       .  S
C375        C886   1.491       .  S
C376        C380   1.548       .  S
C376        C378   1.553       .  S
C376        H382   1.109       .  S
C377        H383   1.087       .  S
C377        C378   1.356       .  D
C378        C914   1.483       .  S
C379        H384   1.087       .  S
C379        C380   1.362       .  D
C380        C830   1.474       .  S
C385        C386   1.544       .  S
C385        C391   1.529       .  S
C385        C389   1.538   1_545  S
C385       C1001   1.517       .  S
C386        H393   1.086       .  S
C386        C387   1.369       .  D
C387        C388   1.547       .  S
C387        C902   1.492       .  S
C388        C392   1.540       .  S
C388        C390   1.542   1_545  S
C388        H394   1.109       .  S
C389        H395   1.085       .  S
C389        C390   1.371       .  D
C390        C930   1.496       .  S
C391        H396   1.087       .  S
C391        C392   1.360       .  D
C392        C821   1.477       .  S
C397        C398   1.534   1_545  S
C397        C403   1.527       .  S
C397        C401   1.528       .  S
C397       C1058   1.503       .  S
C398        H405   1.086       .  S
C398        C399   1.363       .  D
C399        C400   1.560   1_565  S
C399        C941   1.495       .  S
C400        C404   1.549       .  S
C400        C402   1.552       .  S
C400        H406   1.110       .  S
C401        H407   1.087       .  S
C401        C402   1.358       .  D
C402        C890   1.481       .  S
C403        H408   1.087       .  S
C403        C404   1.364       .  D
C404        C817   1.478       .  S
O409       Zr445   2.378       .  S
O409        C420   1.279       .  A
O410       Zr444   2.409       .  S
O410        C421   1.285       .  A
O411       Zr417   2.428       .  S
O411        C422   1.291       .  A
O412       Zr417   2.399       .  S
O412        C423   1.284       .  A
O413       Zr447   2.473   1_554  S
O413        C423   1.300       .  A
O414       Zr446   2.458   1_554  S
O414        C422   1.296       .  A
O415       Zr417   2.494       .  S
O415        C421   1.302       .  A
O416       Zr417   2.482       .  S
O416        C420   1.301   1_554  A
Zr417       O418   2.339       .  S
Zr417       O419   2.338   1_554  S
Zr417       O427   2.354   1_554  S
Zr417       O425   2.336       .  S
O418       Zr444   2.343       .  S
O418       Zr447   2.349   1_554  S
O419       Zr445   2.334       .  S
O419       Zr446   2.332       .  S
C420        C986   1.465       .  S
C421        C834   1.482       .  S
C422        C789   1.477       .  S
C423        C813   1.467       .  S
H424        O425   0.966       .  S
O425       Zr444   2.344       .  S
O425       Zr446   2.347   1_554  S
H426        O427   0.966       .  S
O427       Zr445   2.344       .  S
O427       Zr447   2.355       .  S
O428       Zr444   2.437       .  S
O428        C451   1.293   1_554  A
O429       Zr445   2.406       .  S
O429        C452   1.284       .  A
O430       Zr446   2.401   1_554  S
O430        C453   1.285       .  A
O431       Zr447   2.427   1_554  S
O431        C454   1.290       .  A
O432       Zr447   2.471       .  S
O432        C455   1.298       .  A
O433       Zr446   2.390       .  S
O433        C456   1.282       .  A
O434       Zr448   2.434       .  S
O434        C457   1.291       .  A
O435       Zr448   2.412       .  S
O435        C458   1.287       .  A
O436       Zr446   2.474       .  S
O436        C457   1.299       .  A
O437       Zr447   2.495       .  S
O437        C458   1.302       .  A
O438       Zr444   2.468       .  S
O438        C453   1.297       .  A
O439       Zr445   2.451       .  S
O439        C456   1.295       .  A
O440       Zr445   2.440       .  S
O440        C455   1.291       .  A
O441       Zr444   2.449       .  S
O441        C454   1.295       .  A
O442       Zr448   2.409       .  S
O442        C451   1.285       .  A
O443       Zr448   2.433       .  S
O443        C452   1.291       .  A
Zr444       O450   2.332   1_554  S
Zr444       O462   2.350   1_554  S
Zr445       O449   2.327       .  S
Zr445       O460   2.327       .  S
Zr446       O450   2.328       .  S
Zr446       O460   2.342       .  S
Zr447       O449   2.336       .  S
Zr447       O462   2.362       .  S
Zr448       O449   2.332       .  S
Zr448       O450   2.338       .  S
Zr448       O462   2.338       .  S
Zr448       O460   2.320       .  S
C451        C962   1.461       .  S
C452        C858   1.459       .  S
C453        C785   1.467       .  S
C454        C802   1.469       .  S
C455        C809   1.488       .  S
C456        C793   1.457       .  S
C457        C797   1.485       .  S
C458        C805   1.483       .  S
H459        O460   0.965       .  S
H461        O462   0.965       .  S
O463       Zr499   2.449       .  S
O463        C474   1.296   1_556  A
O464       Zr498   2.432       .  S
O464        C475   1.289       .  A
O465       Zr471   2.400       .  S
O465        C476   1.283       .  A
O466       Zr471   2.384       .  S
O466        C477   1.281       .  A
O467       Zr501   2.484       .  S
O467        C477   1.300       .  A
O468       Zr500   2.448       .  S
O468        C476   1.293       .  A
O469       Zr471   2.409       .  S
O469        C475   1.289       .  A
O470       Zr471   2.408       .  S
O470        C474   1.284       .  A
Zr471       O472   2.328       .  S
Zr471       O473   2.328       .  S
Zr471       O481   2.334       .  S
Zr471       O479   2.322       .  S
O472       Zr498   2.341       .  S
O472       Zr501   2.335       .  S
O473       Zr499   2.335   1_554  S
O473       Zr500   2.333       .  S
C474        C994   1.463       .  S
C475        C826   1.465       .  S
C476        C761   1.459       .  S
C477        C777   1.470       .  S
H478        O479   0.965       .  S
O479       Zr498   2.339       .  S
O479       Zr500   2.318       .  S
H480        O481   0.965       .  S
O481       Zr499   2.348   1_554  S
O481       Zr501   2.335       .  S
O482       Zr498   2.443       .  S
O482        C505   1.294   1_554  A
O483       Zr499   2.439       .  S
O483        C506   1.291       .  A
O484       Zr500   2.451       .  S
O484        C507   1.295       .  A
O485       Zr501   2.479       .  S
O485        C508   1.299       .  A
O486       Zr501   2.455   1_556  S
O486        C509   1.296       .  A
O487       Zr500   2.432   1_556  S
O487        C510   1.291       .  A
O488       Zr502   2.465       .  S
O488        C511   1.297       .  A
O489       Zr502   2.461       .  S
O489        C512   1.297       .  A
O490       Zr500   2.395   1_556  S
O490        C511   1.284       .  A
O491       Zr501   2.425   1_556  S
O491        C512   1.290       .  A
O492       Zr498   2.431       .  S
O492        C507   1.290       .  A
O493       Zr499   2.459       .  S
O493        C510   1.297       .  A
O494       Zr499   2.427       .  S
O494        C509   1.290       .  A
O495       Zr498   2.405       .  S
O495        C508   1.286       .  A
O496       Zr502   2.426       .  S
O496        C505   1.288       .  A
O497       Zr502   2.442       .  S
O497        C506   1.294       .  A
Zr498       O504   2.327   1_554  S
Zr498       O516   2.335   1_554  S
Zr499       O503   2.341       .  S
Zr499       O514   2.341       .  S
Zr500       O504   2.349   1_554  S
Zr500       O514   2.346   1_554  S
Zr501       O503   2.362   1_554  S
Zr501       O516   2.348   1_554  S
Zr502       O503   2.340       .  S
Zr502       O504   2.341       .  S
Zr502       O516   2.350       .  S
Zr502       O514   2.345       .  S
C505        C970   1.470       .  S
C506        C850   1.473       .  S
C507        C758   1.474       .  S
C508        C782   1.475       .  S
C509        C774   1.472       .  S
C510        C765   1.477       .  S
C511        C753   1.465       .  S
C512        C769   1.472       .  S
H513        O514   0.965       .  S
H515        O516   0.965       .  S
C517        C518   1.541   1_655  S
C517        C523   1.525       .  S
C517        C521   1.542       .  S
C517        C909   1.515       .  S
C518        H525   1.086       .  S
C518        C519   1.369       .  D
C519        C520   1.543       .  S
C519        C766   1.485       .  S
C520        C524   1.542       .  S
C520        C522   1.541   1_455  S
C520        H526   1.110       .  S
C521        H527   1.085       .  S
C521        C522   1.373       .  D
C522        C810   1.498       .  S
C523        H528   1.087       .  S
C523        C524   1.359   1_655  D
C524        C750   1.475       .  S
C529        C530   1.541       .  S
C529        C535   1.521       .  S
C529        C533   1.535   1_655  S
C529        C869   1.505       .  S
C530        H537   1.083       .  S
C530        C531   1.379       .  D
C531        C532   1.544   1_655  S
C531        C806   1.503       .  S
C532        C536   1.537   1_455  S
C532        C534   1.547       .  S
C532        H538   1.110       .  S
C533        H539   1.087       .  S
C533        C534   1.361       .  D
C534        C754   1.478       .  S
C535        H540   1.088       .  S
C535        C536   1.353       .  D
C536        C746   1.465       .  S
C541        C542   1.531       .  S
C541        C547   1.521       .  S
C541        C545   1.529       .  S
C541       C1086   1.485       .  S
C542        H549   1.084       .  S
C542        C543   1.371       .  D
C543        C544   1.542       .  S
C543        C773   1.489       .  S
C544        C548   1.537       .  S
C544        C546   1.544       .  S
C544        H550   1.111       .  S
C545        H551   1.087       .  S
C545        C546   1.355       .  D
C546        C794   1.464       .  S
C547        H552   1.087       .  S
C547        C548   1.357       .  D
C548        C741   1.461       .  S
C553        C554   1.549       .  S
C553        C559   1.531       .  S
C553        C557   1.535       .  S
C553       C1026   1.523       .  S
C554        H561   1.086       .  S
C554        C555   1.375       .  D
C555        C556   1.537       .  S
C555        C790   1.484       .  S
C556        C560   1.540       .  S
C556        C558   1.530       .  S
C556        H562   1.111       .  S
C557        H563   1.086       .  S
C557        C558   1.371       .  D
C558        C778   1.484       .  S
C559        H564   1.086       .  S
C559        C560   1.361       .  D
C560        C737   1.480       .  S
C565        C566   1.528   1_655  S
C565        C571   1.527       .  S
C565        C569   1.540       .  S
C565        C865   1.504   1_655  S
C566        H573   1.086       .  S
C566        C567   1.367       .  D
C567        C568   1.540   1_455  S
C567        C757   1.486       .  S
C568        C572   1.543       .  S
C568        C570   1.544       .  S
C568        H574   1.110       .  S
C569        H575   1.086       .  S
C569        C570   1.366       .  D
C570        C801   1.479       .  S
C571        H576   1.087       .  S
C571        C572   1.360       .  D
C572        C733   1.478       .  S
C577        C578   1.543       .  S
C577        C583   1.523       .  S
C577        C581   1.531   1_655  S
C577        C906   1.509       .  S
C578        H585   1.084       .  S
C578        C579   1.380       .  D
C579        C580   1.529       .  S
C579        C814   1.482       .  S
C580        C584   1.536       .  S
C580        C582   1.536   1_655  S
C580        H586   1.112       .  S
C581        H587   1.083       .  S
C581        C582   1.370       .  D
C582        C762   1.481       .  S
C583        H588   1.087   1_655  S
C583        C584   1.356       .  D
C584        C729   1.466   1_655  S
C589        C590   1.539       .  S
C589        C595   1.527       .  S
C589        C593   1.541       .  S
C589       C1081   1.511       .  S
C590        H597   1.085       .  S
C590        C591   1.371       .  D
C591        C592   1.540       .  S
C591        C798   1.495       .  S
C592        C596   1.540       .  S
C592        C594   1.545       .  S
C592        H598   1.109       .  S
C593        H599   1.086       .  S
C593        C594   1.370       .  D
C594        C770   1.486       .  S
C595        H600   1.087       .  S
C595        C596   1.358       .  D
C596        C726   1.474       .  S
C601        C602   1.536       .  S
C601        C607   1.525       .  S
C601        C605   1.537       .  S
C601       C1022   1.503       .  S
C602        H609   1.084       .  S
C602        C603   1.376       .  D
C603        C604   1.539       .  S
C603        C781   1.493       .  S
C604        C608   1.537       .  S
C604        C606   1.545       .  S
C604        H610   1.111       .  S
C605        H611   1.086       .  S
C605        C606   1.360       .  D
C606        C786   1.478       .  S
C607        H612   1.087       .  S
C607        C608   1.359       .  D
C608        C721   1.471       .  S
O613       Zr649   2.450       .  S
O613        C624   1.294       .  A
O614       Zr648   2.441       .  S
O614        C625   1.291       .  A
O615       Zr621   2.479       .  S
O615        C626   1.298       .  A
O616       Zr621   2.476       .  S
O616        C627   1.299       .  A
O617       Zr651   2.411       .  S
O617        C627   1.288       .  A
O618       Zr650   2.402       .  S
O618        C626   1.287       .  A
O619       Zr621   2.434       .  S
O619        C625   1.292       .  A
O620       Zr621   2.418       .  S
O620        C624   1.289       .  A
Zr621       O622   2.340       .  S
Zr621       O623   2.340       .  S
Zr621       O631   2.342       .  S
Zr621       O629   2.352       .  S
O622       Zr648   2.342       .  S
O622       Zr651   2.338       .  S
O623       Zr649   2.340       .  S
O623       Zr650   2.333       .  S
C624       C1054   1.470       .  S
C625        C722   1.466       .  S
C626        C958   1.489       .  S
C627        C838   1.475       .  S
H628        O629   0.966       .  S
O629       Zr648   2.352       .  S
O629       Zr650   2.345       .  S
H630        O631   0.965       .  S
O631       Zr649   2.328       .  S
O631       Zr651   2.344       .  S
O632       Zr648   2.467       .  S
O632        C655   1.297       .  A
O633       Zr649   2.444       .  S
O633        C656   1.291       .  A
O634       Zr650   2.456       .  S
O634        C657   1.294       .  A
O635       Zr651   2.463       .  S
O635        C658   1.296       .  A
O636       Zr651   2.445       .  S
O636        C659   1.291       .  A
O637       Zr650   2.466       .  S
O637        C660   1.296       .  A
O638       Zr652   2.480       .  S
O638        C661   1.299       .  A
O639       Zr652   2.462       .  S
O639        C662   1.295       .  A
O640       Zr650   2.405       .  S
O640        C661   1.286       .  A
O641       Zr651   2.425       .  S
O641        C662   1.292       .  A
O642       Zr648   2.431       .  S
O642        C657   1.291       .  A
O643       Zr649   2.412       .  S
O643        C660   1.288       .  A
O644       Zr649   2.445       .  S
O644        C659   1.295       .  A
O645       Zr648   2.418       .  S
O645        C658   1.289       .  A
O646       Zr652   2.400       .  S
O646        C655   1.286       .  A
O647       Zr652   2.423       .  S
O647        C656   1.292       .  A
Zr648       O654   2.329       .  S
Zr648       O666   2.339       .  S
Zr649       O653   2.343       .  S
Zr649       O664   2.346       .  S
Zr650       O654   2.335       .  S
Zr650       O664   2.336       .  S
Zr651       O653   2.345       .  S
Zr651       O666   2.331       .  S
Zr652       O653   2.348       .  S
Zr652       O654   2.336       .  S
Zr652       O666   2.344       .  S
Zr652       O664   2.327       .  S
C655        C949   1.468       .  S
C656        C742   1.472       .  S
C657        C829   1.479       .  S
C658        C738   1.474       .  S
C659        C862   1.481       .  S
C660        C725   1.471       .  S
C661        C853   1.478       .  S
C662        C982   1.489       .  S
H663        O664   0.965       .  S
H665        O666   0.965       .  S
O667       Zr703   2.476       .  S
O667        C678   1.298       .  A
O668       Zr702   2.479   1_455  S
O668        C679   1.299       .  A
O669       Zr675   2.473       .  S
O669        C680   1.298       .  A
O670       Zr675   2.451   1_545  S
O670        C681   1.293       .  A
O671       Zr705   2.428       .  S
O671        C681   1.292   1_554  A
O672       Zr704   2.392       .  S
O672        C680   1.285   1_655  A
O673       Zr675   2.421   1_545  S
O673        C679   1.290       .  A
O674       Zr675   2.413       .  S
O674        C678   1.288   1_556  A
Zr675       O676   2.348   1_565  S
Zr675       O677   2.334       .  S
Zr675       O685   2.345   1_566  S
Zr675       O683   2.336   1_455  S
O676       Zr702   2.351   1_455  S
O676       Zr705   2.353   1_556  S
O677       Zr703   2.333   1_556  S
O677       Zr704   2.344   1_455  S
C678        C998   1.473       .  S
C679        C818   1.482       .  S
C680        C749   1.470       .  S
C681        C974   1.478       .  S
H682        O683   0.965       .  S
O683       Zr702   2.345   1_565  S
O683       Zr704   2.339       .  S
H684        O685   0.964       .  S
O685       Zr703   2.333   1_545  S
O685       Zr705   2.326       .  S
O686       Zr702   2.499       .  S
O686        C709   1.303       .  A
O687       Zr703   2.469   1_655  S
O687        C710   1.296       .  A
O688       Zr704   2.481       .  S
O688        C711   1.300       .  A
O689       Zr705   2.446   1_556  S
O689        C712   1.292       .  A
O690       Zr705   2.483       .  S
O690        C713   1.299       .  A
O691       Zr704   2.457   1_554  S
O691        C714   1.294       .  A
O692       Zr706   2.454   1_565  S
O692        C715   1.293       .  A
O693       Zr706   2.468       .  S
O693        C716   1.296       .  A
O694       Zr704   2.425       .  S
O694        C715   1.292   1_556  A
O695       Zr705   2.413       .  S
O695        C716   1.288   1_455  A
O696       Zr702   2.415       .  S
O696        C711   1.288   1_545  A
O697       Zr703   2.402       .  S
O697        C714   1.288   1_455  A
O698       Zr703   2.394   1_545  S
O698        C713   1.285       .  A
O699       Zr702   2.427       .  S
O699        C712   1.293   1_655  A
O700       Zr706   2.386       .  S
O700        C709   1.283   1_554  A
O701       Zr706   2.401       .  S
O701        C710   1.287   1_545  A
Zr702       O708   2.335       .  S
Zr702       O720   2.340       .  S
Zr703       O707   2.336   1_465  S
Zr703       O718   2.345   1_455  S
Zr704       O708   2.324   1_565  S
Zr704       O718   2.347   1_556  S
Zr705       O707   2.335   1_455  S
Zr705       O720   2.352   1_454  S
Zr706       O707   2.330       .  S
Zr706       O708   2.336   1_554  S
Zr706       O720   2.337   1_554  S
Zr706       O718   2.339   1_545  S
C709        C965   1.479       .  S
C710        C845   1.486       .  S
C711        C842   1.479       .  S
C712        C745   1.477       .  S
C713        C822   1.475       .  S
C714        C730   1.480       .  S
C715        C989   1.484       .  S
C716        C734   1.471       .  S
H717        O718   0.966       .  S
H719        O720   0.965       .  S
C721        H723   1.087       .  S
C721        C722   1.342       .  D
C722        H724   1.087       .  S
C725        H727   1.087       .  S
C725        C726   1.349       .  D
C726        H728   1.087       .  S
C729        H731   1.087       .  S
C729        C730   1.346   1_455  D
C730        H732   1.086       .  S
C733        H735   1.087       .  S
C733        C734   1.350       .  D
C734        H736   1.086       .  S
C737        H739   1.087       .  S
C737        C738   1.349       .  D
C738        H740   1.086       .  S
C741        H743   1.088       .  S
C741        C742   1.341       .  D
C742        H744   1.087       .  S
C745        H747   1.087       .  S
C745        C746   1.342   1_455  D
C746        H748   1.088       .  S
C749        H751   1.086       .  S
C749        C750   1.350       .  D
C750        H752   1.087   1_455  S
C753        H755   1.087       .  S
C753        C754   1.335       .  D
C754        H756   1.086       .  S
C757        H759   1.086       .  S
C757        C758   1.344       .  D
C758        H760   1.086       .  S
C761        H763   1.083       .  S
C761        C762   1.340       .  D
C762        H764   1.087       .  S
C765        H767   1.086       .  S
C765        C766   1.343       .  D
C766        H768   1.087       .  S
C769        H771   1.085       .  S
C769        C770   1.343       .  D
C770        H772   1.087       .  S
C773        H775   1.086       .  S
C773        C774   1.345       .  D
C774        H776   1.084       .  S
C777        H779   1.087       .  S
C777        C778   1.335       .  D
C778        H780   1.086       .  S
C781        H783   1.086       .  S
C781        C782   1.342       .  D
C782        H784   1.084       .  S
C785        H787   1.089       .  S
C785        C786   1.336       .  D
C786        H788   1.086       .  S
C789        H791   1.086       .  S
C789        C790   1.350       .  D
C790        H792   1.086       .  S
C793        H795   1.088       .  S
C793        C794   1.330       .  D
C794        H796   1.087       .  S
C797        H799   1.086       .  S
C797        C798   1.346       .  D
C798        H800   1.086       .  S
C801        H803   1.087       .  S
C801        C802   1.339       .  D
C802        H804   1.087       .  S
C805        H807   1.083       .  S
C805        C806   1.346       .  D
C806        H808   1.086       .  S
C809        H811   1.086       .  S
C809        C810   1.347       .  D
C810        H812   1.086       .  S
C813        H815   1.084       .  S
C813        C814   1.334       .  D
C814        H816   1.087       .  S
C817        H819   1.087   1_545  S
C817        C818   1.350       .  D
C818        H820   1.086       .  S
C821        H823   1.087       .  S
C821        C822   1.351       .  D
C822        H824   1.086       .  S
C825        H827   1.088       .  S
C825        C826   1.341       .  D
C826        H828   1.086       .  S
C829        H831   1.086       .  S
C829        C830   1.345       .  D
C830        H832   1.087       .  S
C833        H835   1.086       .  S
C833        C834   1.344       .  D
C834        H836   1.088       .  S
C837        H839   1.087       .  S
C837        C838   1.354       .  D
C838        H840   1.086       .  S
C841        H843   1.086   1_565  S
C841        C842   1.355       .  D
C842        H844   1.086       .  S
C845        H847   1.086       .  S
C845        C846   1.349   1_565  D
C846        H848   1.087       .  S
C849        H851   1.087       .  S
C849        C850   1.344       .  D
C850        H852   1.087       .  S
C853        H855   1.086       .  S
C853        C854   1.353       .  D
C854        H856   1.086       .  S
C857        H859   1.087       .  S
C857        C858   1.339       .  D
C858        H860   1.087       .  S
C861        H863   1.087       .  S
C861        C862   1.342       .  D
C862        H864   1.087       .  S
C865        H867   1.087       .  S
C865        C866   1.335   1_455  D
C866        H868   1.088       .  S
C869        H871   1.087       .  S
C869        C870   1.346   1_655  D
C870        H872   1.087       .  S
C873        H875   1.086       .  S
C873        C874   1.348       .  D
C874        H876   1.086       .  S
C877        H879   1.085       .  S
C877        C878   1.351       .  D
C878        H880   1.086       .  S
C881        H883   1.085       .  S
C881        C882   1.348       .  D
C882        H884   1.086       .  S
C885        H887   1.085       .  S
C885        C886   1.342       .  D
C886        H888   1.087       .  S
C889        H891   1.087       .  S
C889        C890   1.335       .  D
C890        H892   1.087       .  S
C893        H895   1.087       .  S
C893        C894   1.346       .  D
C894        H896   1.087       .  S
C897        H899   1.086       .  S
C897        C898   1.342       .  D
C898        H900   1.085       .  S
C901        H903   1.085       .  S
C901        C902   1.342       .  D
C902        H904   1.086       .  S
C905        H907   1.087       .  S
C905        C906   1.342       .  D
C906        H908   1.088   1_655  S
C909        H911   1.087       .  S
C909        C910   1.346   1_655  D
C910        H912   1.087       .  S
C913        H915   1.087       .  S
C913        C914   1.337       .  D
C914        H916   1.087       .  S
C917        H919   1.087       .  S
C917        C918   1.342       .  D
C918        H920   1.087       .  S
C921        H923   1.088       .  S
C921        C922   1.332       .  D
C922        H924   1.086       .  S
C925        H927   1.087       .  S
C925        C926   1.340       .  D
C926        H928   1.086       .  S
C929        H931   1.086       .  S
C929        C930   1.347       .  D
C930        H932   1.086       .  S
C933        H935   1.087       .  S
C933        C934   1.338       .  D
C934        H936   1.086       .  S
C937        H939   1.087       .  S
C937        C938   1.344       .  D
C938        H940   1.086       .  S
C941        H943   1.086       .  S
C941        C942   1.337       .  D
C942        H944   1.087       .  S
C945        H947   1.087       .  S
C945        C946   1.346       .  D
C946        H948   1.087       .  S
C949        H951   1.087       .  S
C949        C950   1.351       .  D
C950        H952   1.087       .  S
C953        H955   1.087       .  S
C953        C954   1.341       .  D
C954        H956   1.087       .  S
C957        H959   1.087       .  S
C957        C958   1.352       .  D
C958        H960   1.086       .  S
C961        H963   1.087       .  S
C961        C962   1.340   1_554  D
C962        H964   1.087       .  S
C965        H967   1.086       .  S
C965        C966   1.359       .  D
C966        H968   1.086       .  S
C969        H971   1.087       .  S
C969        C970   1.342   1_554  D
C970        H972   1.087       .  S
C973        H975   1.087       .  S
C973        C974   1.343   1_554  D
C974        H976   1.087       .  S
C977        H979   1.087       .  S
C977        C978   1.342       .  D
C978        H980   1.087       .  S
C981        H983   1.087       .  S
C981        C982   1.346       .  D
C982        H984   1.086       .  S
C985        H987   1.087       .  S
C985        C986   1.331   1_554  D
C986        H988   1.088       .  S
C989        H991   1.087       .  S
C989        C990   1.344   1_554  D
C990        H992   1.087       .  S
C993        H995   1.088   1_554  S
C993        C994   1.338       .  D
C994        H996   1.087       .  S
C997        H999   1.086   1_554  S
C997        C998   1.353       .  D
C998       H1000   1.086       .  S
C1001      H1003   1.087   1_545  S
C1001      C1002   1.342       .  D
C1002      H1004   1.088       .  S
C1005      H1007   1.088   1_545  S
C1005      C1006   1.332       .  D
C1006      H1008   1.088       .  S
C1009      H1011   1.087       .  S
C1009      C1010   1.336       .  D
C1010      H1012   1.086       .  S
C1013      H1015   1.087       .  S
C1013      C1014   1.340       .  D
C1014      H1016   1.086       .  S
C1017      H1019   1.086       .  S
C1017      C1018   1.342       .  D
C1018      H1020   1.087       .  S
C1021      H1023   1.087       .  S
C1021      C1022   1.341       .  D
C1022      H1024   1.087       .  S
C1025      H1027   1.088       .  S
C1025      C1026   1.340       .  D
C1026      H1028   1.087       .  S
C1029      H1031   1.086       .  S
C1029      C1030   1.355       .  D
C1030      H1032   1.084       .  S
C1033      H1035   1.087       .  S
C1033      C1034   1.337       .  D
C1034      H1036   1.087       .  S
C1037      H1039   1.086       .  S
C1037      C1038   1.347       .  D
C1038      H1040   1.087       .  S
C1041      H1043   1.086       .  S
C1041      C1042   1.343       .  D
C1042      H1044   1.085       .  S
C1045      H1047   1.087       .  S
C1045      C1046   1.337       .  D
C1046      H1048   1.088       .  S
C1049      H1051   1.087       .  S
C1049      C1050   1.342       .  D
C1050      H1052   1.087       .  S
C1053      H1055   1.086       .  S
C1053      C1054   1.350       .  D
C1054      H1056   1.086       .  S
C1057      H1059   1.087       .  S
C1057      C1058   1.342   1_565  D
C1058      H1060   1.088       .  S
C1061      H1063   1.087       .  S
C1061      C1062   1.345   1_565  D
C1062      H1064   1.087       .  S
C1065      H1067   1.086       .  S
C1065      C1066   1.343       .  D
C1066      H1068   1.085       .  S
C1069      H1071   1.086       .  S
C1069      C1070   1.336       .  D
C1070      H1072   1.088       .  S
C1073      H1075   1.086       .  S
C1073      C1074   1.345       .  D
C1074      H1076   1.087       .  S
C1077      H1079   1.086       .  S
C1077      C1078   1.347       .  D
C1078      H1080   1.086       .  S
C1081      H1083   1.087       .  S
C1081      C1082   1.342       .  D
C1082      H1084   1.087       .  S
C1085      H1087   1.087       .  S
C1085      C1086   1.340       .  D
C1086      H1088   1.088       .  S
C1089      H1091   1.086       .  S
C1089      C1090   1.345       .  D
C1090      H1092   1.087       .  S
C1093      H1095   1.082       .  S
C1093      C1094   1.348       .  D
C1094      H1096   1.086       .  S
C1097      H1099   1.086       .  S
C1097      C1098   1.348       .  D
C1098      H1100   1.086       .  S
C1101      H1103   1.087       .  S
C1101      C1102   1.340       .  D
C1102      H1104   1.086       .  S
