geometry optimzed in LAMMPS
_audit_creation_date              2020-11-30 
_audit_creation_method            'lammps2cif' 
_symmetry_space_group_name_H-M    'P1' 
_symmetry_Int_Tables_number       1 
_symmetry_cell_setting            triclinic 
loop_ 
_symmetry_equiv_pos_as_xyz 
  x,y,z 
_cell_length_a                    30.05544306657235 
_cell_length_b                    30.057142146273947 
_cell_length_c                    25.40044298002985 
_cell_angle_alpha                 90.00138381653355 
_cell_angle_beta                  90.00083176420154 
_cell_angle_gamma                 85.10784804442609 
loop_ 
_atom_site_label 
_atom_site_type_symbol 
_atom_site_fract_x 
_atom_site_fract_y 
_atom_site_fract_z 
_atom_site_charge 
O1          O  0.28863721  0.28603322  0.08168918    -0.82450
O2          O  0.11063472  0.02479000  0.04063861    -0.82470
O3          O  0.04788002  0.23953472  0.01624694    -0.82480
O4          O  0.29306826  0.09522619  0.02878016    -0.82420
O5          O  0.05498433  0.29535944  0.07200144    -0.82540
O6          O  0.28709396  0.04208520  0.08522149    -0.82460
O7          O  0.04801062  0.06877582  0.05143587    -0.82450
O8          O  0.29251908  0.23645287  0.01849924    -0.82480
C9          C  0.28431703  0.24701457  0.06649695     1.07240
C10         C  0.08974231  0.05791578  0.06294603     1.07130
C11         C  0.06021784  0.25407856  0.06051281     1.07270
C12         C  0.27999905  0.08248026  0.07301874     1.07140
O13         O  0.23965251  0.04793793  0.31700487    -0.82450
O14         O  0.09505908  0.29294147  0.30458792    -0.82520
O15         O  0.28599914  0.28867506  0.25164340    -0.82460
O16         O  0.02483300  0.11056725  0.29260797    -0.82440
O17         O  0.06875161  0.04791426  0.28171007    -0.82490
O18         O  0.23644611  0.29250219  0.31487200    -0.82460
O19         O  0.29544573  0.05507992  0.26121687    -0.82420
O20         O  0.04193127  0.28695482  0.24812583    -0.82490
Co21       Co  0.26653837  0.00010195  0.03316931     1.51530
Co22       Co  0.05739647  0.33873103  0.34653298     1.51690
Co23       Co  0.33370748  0.26626638  0.96733876     1.51570
Co24       Co  0.33859661  0.05772491  0.31960816     1.51470
O25         O  0.32784404  0.32756435  0.00016974    -1.44380
C26         C  0.25416558  0.06028799  0.27273298     1.07170
C27         C  0.08232915  0.27987970  0.26033703     1.07260
C28         C  0.24698533  0.28433198  0.26686123     1.07200
C29         C  0.05792567  0.08965373  0.27024161     1.07170
O30         O  0.21610725  0.21857547  0.24818702    -0.82450
O31         O  0.06049841  0.14624558  0.20696005    -0.82470
O32         O  0.12328411  0.26488701  0.18274159    -0.82480
O33         O  0.21170692  0.07595850  0.19513343    -0.82420
O34         O  0.11609413  0.20911676  0.23854450    -0.82500
O35         O  0.21753780  0.12916039  0.25154761    -0.82460
O36         O  0.12314906  0.10232551  0.21783859    -0.82450
O37         O  0.21224110  0.26807140  0.18489272    -0.82480
C38         C  0.22037504  0.25759609  0.23292524     1.07240
C39         C  0.08140217  0.11314402  0.22929938     1.07130
C40         C  0.11088187  0.25039526  0.22701403     1.07270
C41         C  0.22468554  0.08876053  0.23937900     1.07140
O42         O  0.26491684  0.12339030  0.15061367    -0.82450
O43         O  0.07591490  0.21165312  0.13812724    -0.82520
O44         O  0.21852953  0.21619988  0.08515858    -0.82460
O45         O  0.14634654  0.06051550  0.12621618    -0.82440
O46         O  0.10237835  0.12313634  0.11535942    -0.82490
O47         O  0.26801599  0.21232692  0.14847369    -0.82460
O48         O  0.20919380  0.11618130  0.09474427    -0.82420
O49         O  0.12912983  0.21756344  0.08175449    -0.82490
Co50       Co  0.23818357  0.17113084  0.19955593     1.51530
Co51       Co  0.11349931  0.16592853  0.18016369     1.51690
Co52       Co  0.17106334  0.23822180  0.13378974     1.51570
Co53       Co  0.16597007  0.11351816  0.15307977     1.51470
O54         O  0.17689987  0.17692473  0.16665152    -1.44380
C55         C  0.25046782  0.11099856  0.10631736     1.07170
C56         C  0.08871659  0.22464737  0.09389136     1.07260
C57         C  0.25755496  0.22044054  0.10043267     1.07200
C58         C  0.11322749  0.08140577  0.10388016     1.07170
O59         O  0.28833419  0.28630736  0.41467120    -0.82450
O60         O  0.11061305  0.02487412  0.37337827    -0.82470
O61         O  0.04761693  0.23979594  0.34924364    -0.82480
O62         O  0.29283942  0.09539067  0.36157380    -0.82420
O63         O  0.05467877  0.29562945  0.40498202    -0.82540
O64         O  0.28689552  0.04223846  0.41800094    -0.82460
O65         O  0.04794772  0.06876880  0.38425613    -0.82450
O66         O  0.29212781  0.23680021  0.35141960    -0.82480
C67         C  0.28396204  0.24731643  0.39943837     1.07240
C68         C  0.08968642  0.05795640  0.39573585     1.07130
C69         C  0.05989523  0.25433628  0.39354608     1.07270
C70         C  0.27977772  0.08263359  0.40580439     1.07140
O71         O  0.23962443  0.04804690  0.65005546    -0.82450
O72         O  0.09531859  0.29251346  0.63830958    -0.82520
O73         O  0.28590516  0.28806215  0.58506927    -0.82460
O74         O  0.02521756  0.11081983  0.62635797    -0.82440
O75         O  0.06890605  0.04806665  0.61517183    -0.82490
O76         O  0.23635296  0.29195689  0.64830321    -0.82460
O77         O  0.29545936  0.05530012  0.59436658    -0.82420
O78         O  0.04203238  0.28666889  0.58207036    -0.82490
Co79       Co  0.26628797  0.00023419  0.36601031     1.51530
Co80       Co  0.05769815  0.33833839  0.68034720     1.51690
Co81       Co  0.33338822  0.26660433  0.30032632     1.51570
Co82       Co  0.33853988  0.05787247  0.65286760     1.51470
O83         O  0.32752077  0.32791936  0.33319160    -1.44380
C84         C  0.25415347  0.06039509  0.60577310     1.07170
C85         C  0.08244509  0.27953708  0.59407556     1.07260
C86         C  0.24685110  0.28390518  0.60025426     1.07200
C87         C  0.05812005  0.08981077  0.60371738     1.07170
O88         O  0.21572220  0.21843320  0.58119110    -0.82450
O89         O  0.06036354  0.14607387  0.53991095    -0.82470
O90         O  0.12302582  0.26484112  0.51615240    -0.82480
O91         O  0.21169446  0.07596076  0.52802359    -0.82420
O92         O  0.11597739  0.20884404  0.57164967    -0.82500
O93         O  0.21739244  0.12917269  0.58440544    -0.82460
O94         O  0.12314237  0.10238219  0.55091152    -0.82450
O95         O  0.21197734  0.26813283  0.51817776    -0.82480
C96         C  0.22009133  0.25747249  0.56616126     1.07240
C97         C  0.08140477  0.11314785  0.56245057     1.07130
C98         C  0.11081760  0.25017557  0.56042180     1.07270
C99         C  0.22464459  0.08878452  0.57228511     1.07140
O100        O  0.26471933  0.12357016  0.48337171    -0.82450
O101        O  0.07563329  0.21175825  0.47116413    -0.82520
O102        O  0.21812684  0.21663269  0.41813915    -0.82460
O103        O  0.14616515  0.06054553  0.45917451    -0.82440
O104        O  0.10225259  0.12318992  0.44815252    -0.82490
O105        O  0.26768589  0.21252316  0.48137769    -0.82460
O106        O  0.20895169  0.11623017  0.42760232    -0.82420
O107        O  0.12882610  0.21792158  0.41484452    -0.82490
Co108      Co  0.23793640  0.17119727  0.53241929     1.51530
Co109      Co  0.11331060  0.16588809  0.51303620     1.51690
Co110      Co  0.17074901  0.23842287  0.46697576     1.51570
Co111      Co  0.16583142  0.11353590  0.48603606     1.51470
O112        O  0.17668866  0.17697951  0.49951471    -1.44380
C113        C  0.25024194  0.11113427  0.43910906     1.07170
C114        C  0.08841230  0.22490971  0.42696895     1.07260
C115        C  0.25718116  0.22075356  0.43336848     1.07200
C116        C  0.11310645  0.08144759  0.43672396     1.07170
O117        O  0.28829807  0.28581816  0.74810314    -0.82450
O118        O  0.11087450  0.02515733  0.70690053    -0.82470
O119        O  0.04788600  0.23940142  0.68321346    -0.82480
O120        O  0.29271503  0.09549240  0.69492259    -0.82420
O121        O  0.05513816  0.29527438  0.73884903    -0.82540
O122        O  0.28697083  0.04219458  0.75115850    -0.82460
O123        O  0.04815289  0.06889589  0.71811471    -0.82450
O124        O  0.29208002  0.23624385  0.68491852    -0.82480
C125        C  0.28404602  0.24677842  0.73295806     1.07240
C126        C  0.08990508  0.05807709  0.72953504     1.07130
C127        C  0.06028557  0.25397235  0.72745696     1.07270
C128        C  0.27977165  0.08259881  0.73916459     1.07140
O129        O  0.23994433  0.04780332  0.98408887    -0.82450
O130        O  0.09533395  0.29271051  0.97165854    -0.82520
O131        O  0.28631856  0.28827750  0.91865435    -0.82460
O132        O  0.02493887  0.11058608  0.95975529    -0.82440
O133        O  0.06885052  0.04791569  0.94898168    -0.82490
O134        O  0.23677887  0.29207398  0.98187288    -0.82460
O135        O  0.29578447  0.05485841  0.92836298    -0.82420
O136        O  0.04219377  0.28671254  0.91521035    -0.82490
Co137      Co  0.26624859  0.00033229  0.69914340     1.51530
Co138      Co  0.05765804  0.33847724  0.01359336     1.51690
Co139      Co  0.33328761  0.26601624  0.63376272     1.51570
Co140      Co  0.33887197  0.05758533  0.98683641     1.51470
O141        O  0.32741137  0.32735155  0.66654514    -1.44380
C142        C  0.25448269  0.06004328  0.93977053     1.07170
C143        C  0.08259398  0.27963915  0.92742220     1.07260
C144        C  0.24731161  0.28392884  0.93385390     1.07200
C145        C  0.05804467  0.08963856  0.93744814     1.07170
O146        O  0.21657015  0.21815241  0.91507698    -0.82450
O147        O  0.06065567  0.14608124  0.87399758    -0.82470
O148        O  0.12354927  0.26466514  0.84985036    -0.82480
O149        O  0.21192996  0.07565550  0.86208006    -0.82420
O150        O  0.11630580  0.20887341  0.90560475    -0.82500
O151        O  0.21794700  0.12888632  0.91837799    -0.82460
O152        O  0.12330656  0.10218411  0.88503201    -0.82450
O153        O  0.21251912  0.26771870  0.85186642    -0.82480
C154        C  0.22072921  0.25719936  0.89987752     1.07240
C155        C  0.08155365  0.11303541  0.89645424     1.07130
C156        C  0.11113946  0.25015846  0.89410856     1.07270
C157        C  0.22502767  0.08847954  0.90628511     1.07140
O158        O  0.26496021  0.12310930  0.81711171    -0.82450
O159        O  0.07601222  0.21157625  0.80519151    -0.82520
O160        O  0.21847316  0.21581560  0.75201447    -0.82460
O161        O  0.14624383  0.06032225  0.79326565    -0.82440
O162        O  0.10251655  0.12308569  0.78229347    -0.82490
O163        O  0.26815605  0.21203564  0.81506763    -0.82460
O164        O  0.20900722  0.11597891  0.76156872    -0.82420
O165        O  0.12918359  0.21741221  0.74877862    -0.82490
Co166      Co  0.23845495  0.17080516  0.86626268     1.51530
Co167      Co  0.11363934  0.16576502  0.84716317     1.51690
Co168      Co  0.17120736  0.23795451  0.80079615     1.51570
Co169      Co  0.16602790  0.11327701  0.82016056     1.51470
O170        O  0.17705023  0.17668069  0.83365528    -1.44380
C171        C  0.25034139  0.11090041  0.77281819     1.07170
C172        C  0.08878123  0.22454284  0.76091791     1.07260
C173        C  0.25752422  0.22012472  0.76706910     1.07200
C174        C  0.11328885  0.08135747  0.77075578     1.07170
O175        O  0.28837193  0.61953820  0.08162232    -0.82450
O176        O  0.11061542  0.35819576  0.04048286    -0.82470
O177        O  0.04794800  0.57308956  0.01605731    -0.82480
O178        O  0.29287251  0.42857317  0.02863662    -0.82420
O179        O  0.05516302  0.62889356  0.07180273    -0.82540
O180        O  0.28700278  0.37540090  0.08504872    -0.82460
O181        O  0.04792003  0.40204604  0.05136700    -0.82450
O182        O  0.29226918  0.56995763  0.01845098    -0.82480
C183        C  0.28409228  0.58050645  0.06645382     1.07240
C184        C  0.08966379  0.39125679  0.06285189     1.07130
C185        C  0.06028087  0.58760391  0.06033874     1.07270
C186        C  0.27984610  0.41579904  0.07288553     1.07140
O187        O  0.23954844  0.38144114  0.31711535    -0.82450
O188        O  0.09521627  0.62611958  0.30479543    -0.82520
O189        O  0.28591658  0.62149769  0.25204172    -0.82460
O190        O  0.02468928  0.44415057  0.29265507    -0.82440
O191        O  0.06856219  0.38147152  0.28173022    -0.82490
O192        O  0.23625189  0.62549983  0.31514029    -0.82460
O193        O  0.29537617  0.38884702  0.26144691    -0.82420
O194        O  0.04200251  0.62034249  0.24841046    -0.82490
Co195      Co  0.26651813  0.33337043  0.03298393     1.51530
Co196      Co  0.05764815  0.67193724  0.34683802     1.51690
Co197      Co  0.33350939  0.59972302  0.96731766     1.51570
Co198      Co  0.33848285  0.39138280  0.31991153     1.51470
O199        O  0.32773086  0.66105554  0.00005803    -1.44380
C200        C  0.25406687  0.39384756  0.27286535     1.07170
C201        C  0.08240328  0.61317623  0.26052274     1.07260
C202        C  0.24683716  0.61735497  0.26713734     1.07200
C203        C  0.05775084  0.42320658  0.27025800     1.07170
O204        O  0.21580758  0.55179948  0.24816958    -0.82450
O205        O  0.06030758  0.47965316  0.20678009    -0.82470
O206        O  0.12316569  0.59824147  0.18277349    -0.82480
O207        O  0.21156411  0.40929228  0.19518780    -0.82420
O208        O  0.11596525  0.54240912  0.23846791    -0.82500
O209        O  0.21727458  0.46256363  0.25148617    -0.82460
O210        O  0.12297393  0.43578810  0.21785705    -0.82450
O211        O  0.21211649  0.60139173  0.18502538    -0.82480
C212        C  0.22016331  0.59082215  0.23305180     1.07240
C213        C  0.08121855  0.44662312  0.22925467     1.07130
C214        C  0.11082387  0.58370652  0.22704890     1.07270
C215        C  0.22451291  0.42216929  0.23941761     1.07140
O216        O  0.26475833  0.45672571  0.15052369    -0.82450
O217        O  0.07581052  0.54509244  0.13796273    -0.82520
O218        O  0.21837954  0.54961191  0.08515670    -0.82460
O219        O  0.14612686  0.39383672  0.12629985    -0.82440
O220        O  0.10226760  0.45650657  0.11521248    -0.82490
O221        O  0.26786441  0.54571093  0.14844927    -0.82460
O222        O  0.20901335  0.44941095  0.09471533    -0.82420
O223        O  0.12908922  0.55099663  0.08169285    -0.82490
Co224      Co  0.23798994  0.50446475  0.19949567     1.51530
Co225      Co  0.11334187  0.49929923  0.18001370     1.51690
Co226      Co  0.17094946  0.57161166  0.13380782     1.51570
Co227      Co  0.16580549  0.44684281  0.15308638     1.51470
O228        O  0.17675406  0.51026771  0.16654429    -1.44380
C229        C  0.25029802  0.44428213  0.10624596     1.07170
C230        C  0.08867532  0.55811030  0.09375905     1.07260
C231        C  0.25739168  0.55387697  0.10041645     1.07200
C232        C  0.11308407  0.41474806  0.10383377     1.07170
O233        O  0.28790343  0.61930104  0.41509578    -0.82450
O234        O  0.11034655  0.35843544  0.37347778    -0.82470
O235        O  0.04774730  0.57304990  0.34950348    -0.82480
O236        O  0.29262211  0.42892770  0.36198118    -0.82420
O237        O  0.05492188  0.62882409  0.40528803    -0.82540
O238        O  0.28680197  0.37558704  0.41816450    -0.82460
O239        O  0.04764606  0.40226429  0.38438491    -0.82450
O240        O  0.29183432  0.56970907  0.35191143    -0.82480
C241        C  0.28364682  0.58026335  0.39991310     1.07240
C242        C  0.08936225  0.39142126  0.39595910     1.07130
C243        C  0.05999944  0.58752426  0.39385064     1.07270
C244        C  0.27955000  0.41599608  0.40614662     1.07140
O245        O  0.23935716  0.38091013  0.65049482    -0.82450
O246        O  0.09545466  0.62620368  0.63837773    -0.82520
O247        O  0.28578265  0.62168551  0.58516382    -0.82460
O248        O  0.02491114  0.44376902  0.62681843    -0.82440
O249        O  0.06866583  0.38108508  0.61547473    -0.82490
O250        O  0.23625358  0.62566048  0.64841906    -0.82460
O251        O  0.29508103  0.38811893  0.59464268    -0.82420
O252        O  0.04210072  0.62061756  0.58216790    -0.82490
Co253      Co  0.26623095  0.33369692  0.36604770     1.51530
Co254      Co  0.05793956  0.67203560  0.68047281     1.51690
Co255      Co  0.33319449  0.59938172  0.30083637     1.51570
Co256      Co  0.33829394  0.39076040  0.65300741     1.51470
O257        O  0.32742609  0.66071783  0.33359788    -1.44380
C258        C  0.25380350  0.39330082  0.60619358     1.07170
C259        C  0.08249154  0.61324763  0.59418061     1.07260
C260        C  0.24676322  0.61739219  0.60041725     1.07200
C261        C  0.05781759  0.42284299  0.60412632     1.07170
O262        O  0.21576837  0.55165317  0.58176814    -0.82450
O263        O  0.06002247  0.47936010  0.54060415    -0.82470
O264        O  0.12295303  0.59804619  0.51634287    -0.82480
O265        O  0.21125145  0.40905292  0.52857803    -0.82420
O266        O  0.11562852  0.54228705  0.57212401    -0.82500
O267        O  0.21714585  0.46220544  0.58504409    -0.82460
O268        O  0.12276359  0.43552286  0.55135393    -0.82450
O269        O  0.21186473  0.60116553  0.51848789    -0.82480
C270        C  0.22006675  0.59067314  0.56651104     1.07240
C271        C  0.08105242  0.44631903  0.56296331     1.07130
C272        C  0.11067239  0.58359513  0.56067797     1.07270
C273        C  0.22427097  0.42180558  0.57284785     1.07140
O274        O  0.26439239  0.45653700  0.48399033    -0.82450
O275        O  0.07539929  0.54500710  0.47161624    -0.82520
O276        O  0.21800659  0.54925440  0.41868776    -0.82460
O277        O  0.14574812  0.39376830  0.45957280    -0.82440
O278        O  0.10184479  0.45644740  0.44879797    -0.82490
O279        O  0.26753521  0.54546257  0.48192645    -0.82460
O280        O  0.20864644  0.44939558  0.42814325    -0.82420
O281        O  0.12870193  0.55070338  0.41533132    -0.82490
Co282      Co  0.23773650  0.50422734  0.53303895     1.51530
Co283      Co  0.11296191  0.49915769  0.51367438     1.51690
Co284      Co  0.17063787  0.57134395  0.46735975     1.51570
Co285      Co  0.16548001  0.44669556  0.48655710     1.51470
O286        O  0.17641221  0.51007622  0.50022099    -1.44380
C287        C  0.24994286  0.44428972  0.43963300     1.07170
C288        C  0.08829642  0.55796601  0.42737864     1.07260
C289        C  0.25701675  0.55359083  0.43390000     1.07200
C290        C  0.11271037  0.41474962  0.43716843     1.07170
O291        O  0.28803187  0.61955634  0.74825343    -0.82450
O292        O  0.11066859  0.35816155  0.70717334    -0.82470
O293        O  0.04796017  0.57312310  0.68310969    -0.82480
O294        O  0.29255044  0.42833634  0.69512059    -0.82420
O295        O  0.05539179  0.62886446  0.73889302    -0.82540
O296        O  0.28672653  0.37512329  0.75150177    -0.82460
O297        O  0.04789841  0.40179804  0.71846273    -0.82450
O298        O  0.29202664  0.56998108  0.68503328    -0.82480
C299        C  0.28391245  0.58048423  0.73306172     1.07240
C300        C  0.08968830  0.39109357  0.72978150     1.07130
C301        C  0.06040405  0.58756836  0.72738620     1.07270
C302        C  0.27962536  0.41553652  0.73940233     1.07140
O303        O  0.23980412  0.38104322  0.98394496    -0.82450
O304        O  0.09543804  0.62620880  0.97140450    -0.82520
O305        O  0.28615975  0.62172784  0.91857048    -0.82460
O306        O  0.02489660  0.44387649  0.95969478    -0.82440
O307        O  0.06880930  0.38122467  0.94879226    -0.82490
O308        O  0.23657563  0.62565531  0.98173377    -0.82460
O309        O  0.29560441  0.38824025  0.92820162    -0.82420
O310        O  0.04222657  0.62032249  0.91503692    -0.82490
Co311      Co  0.26613432  0.33317186  0.69944051     1.51530
Co312      Co  0.05785497  0.67201741  0.01339795     1.51690
Co313      Co  0.33321760  0.59973270  0.63387527     1.51570
Co314      Co  0.33870378  0.39098379  0.98663060     1.51470
O315        O  0.32742295  0.66107102  0.66665487    -1.44380
C316        C  0.25431445  0.39338162  0.93965625     1.07170
C317        C  0.08262296  0.61314744  0.92719637     1.07260
C318        C  0.24713891  0.61741216  0.93374065     1.07200
C319        C  0.05798103  0.42295811  0.93732531     1.07170
O320        O  0.21643568  0.55157437  0.91498623    -0.82450
O321        O  0.06052477  0.47943727  0.87388765    -0.82470
O322        O  0.12345072  0.59804140  0.84958455    -0.82480
O323        O  0.21174592  0.40900270  0.86204456    -0.82420
O324        O  0.11616851  0.54229588  0.90538966    -0.82500
O325        O  0.21779232  0.46225488  0.91831180    -0.82460
O326        O  0.12319647  0.43557293  0.88494359    -0.82450
O327        O  0.21238203  0.60111911  0.85174770    -0.82480
C328        C  0.22057563  0.59062855  0.89977202     1.07240
C329        C  0.08144388  0.44639962  0.89634753     1.07130
C330        C  0.11105802  0.58358035  0.89386408     1.07270
C331        C  0.22484092  0.42183590  0.90623418     1.07140
O332        O  0.26486687  0.45641720  0.81712036    -0.82450
O333        O  0.07593824  0.54490829  0.80496014    -0.82520
O334        O  0.21847484  0.54917416  0.75194030    -0.82460
O335        O  0.14614407  0.39358895  0.79331139    -0.82440
O336        O  0.10235553  0.45629138  0.78224093    -0.82490
O337        O  0.26808999  0.54545120  0.81505759    -0.82460
O338        O  0.20893130  0.44918825  0.76155990    -0.82420
O339        O  0.12917263  0.55070771  0.74861465    -0.82490
Co340      Co  0.23833812  0.50417982  0.86620164     1.51530
Co341      Co  0.11350995  0.49910499  0.84701198     1.51690
Co342      Co  0.17114362  0.57130149  0.80063042     1.51570
Co343      Co  0.16590680  0.44659846  0.82008157     1.51470
O344        O  0.17694730  0.51002070  0.83351452    -1.44380
C345        C  0.25024277  0.44402281  0.77290477     1.07170
C346        C  0.08877978  0.55794496  0.76074671     1.07260
C347        C  0.25747289  0.55363945  0.76707477     1.07200
C348        C  0.11312573  0.41452810  0.77083480     1.07170
O349        O  0.28850946  0.95269805  0.08187609    -0.82450
O350        O  0.11087079  0.69164111  0.04025350    -0.82470
O351        O  0.04780757  0.90622780  0.01627940    -0.82480
O352        O  0.29298950  0.76206981  0.02866972    -0.82420
O353        O  0.05496455  0.96197584  0.07212387    -0.82540
O354        O  0.28705798  0.70880140  0.08492177    -0.82460
O355        O  0.04818798  0.73549088  0.05131767    -0.82450
O356        O  0.29242896  0.90317072  0.01860479    -0.82480
C357        C  0.28422710  0.91368301  0.06661718     1.07240
C358        C  0.08992631  0.72463378  0.06276501     1.07130
C359        C  0.06018691  0.92070533  0.06056726     1.07270
C360        C  0.27994299  0.74921361  0.07286744     1.07140
O361        O  0.23954074  0.71443707  0.31722988    -0.82450
O362        O  0.09519131  0.95935659  0.30463611    -0.82520
O363        O  0.28602570  0.95505559  0.25170429    -0.82460
O364        O  0.02498490  0.77739781  0.29292526    -0.82440
O365        O  0.06880991  0.71467317  0.28202822    -0.82490
O366        O  0.23646505  0.95900001  0.31492658    -0.82460
O367        O  0.29542537  0.72144208  0.26154060    -0.82420
O368        O  0.04199646  0.95335142  0.24826293    -0.82490
Co369      Co  0.26640954  0.66690681  0.03285219     1.51530
Co370      Co  0.05760948  0.00518160  0.34656594     1.51690
Co371      Co  0.33367552  0.93297507  0.96752823     1.51570
Co372      Co  0.33852946  0.72407160  0.31999831     1.51470
O373        O  0.32789579  0.99421506  0.00045300    -1.44380
C374        C  0.25413127  0.72673388  0.27296625     1.07170
C375        C  0.08240467  0.94629496  0.26041837     1.07260
C376        C  0.24699992  0.95078440  0.26692555     1.07200
C377        C  0.05801545  0.75640441  0.27051598     1.07170
O378        O  0.21611197  0.88504815  0.24826158    -0.82450
O379        O  0.06052187  0.81275117  0.20692592    -0.82470
O380        O  0.12329085  0.93136465  0.18280055    -0.82480
O381        O  0.21177031  0.74244777  0.19524475    -0.82420
O382        O  0.11612039  0.87556498  0.23856882    -0.82500
O383        O  0.21761701  0.79564882  0.25164398    -0.82460
O384        O  0.12320727  0.76892642  0.21801790    -0.82450
O385        O  0.21221975  0.93456216  0.18498194    -0.82480
C386        C  0.22036220  0.92407304  0.23300939     1.07240
C387        C  0.08145737  0.77975781  0.22943917     1.07130
C388        C  0.11091731  0.91684359  0.22706650     1.07270
C389        C  0.22473904  0.75524092  0.23950583     1.07140
O390        O  0.26490885  0.78992776  0.15061137    -0.82450
O391        O  0.07591540  0.87819034  0.13814130    -0.82520
O392        O  0.21852137  0.88271628  0.08522662    -0.82460
O393        O  0.14632429  0.72703100  0.12634885    -0.82440
O394        O  0.10249787  0.78972495  0.11532119    -0.82490
O395        O  0.26800679  0.87886745  0.14854113    -0.82460
O396        O  0.20913285  0.78270592  0.09481954    -0.82420
O397        O  0.12911326  0.88412508  0.08176481    -0.82490
Co398      Co  0.23820396  0.83763506  0.19961139     1.51530
Co399      Co  0.11352906  0.83244444  0.18015474     1.51690
Co400      Co  0.17105780  0.90473276  0.13384557     1.51570
Co401      Co  0.16598882  0.78003009  0.15321836     1.51470
O402        O  0.17692380  0.84344109  0.16671107    -1.44380
C403        C  0.25042367  0.77760326  0.10630095     1.07170
C404        C  0.08869891  0.89121482  0.09390733     1.07260
C405        C  0.25752922  0.88701685  0.10051223     1.07200
C406        C  0.11332357  0.74799627  0.10385908     1.07170
O407        O  0.28828602  0.95285419  0.41473927    -0.82450
O408        O  0.11063464  0.69159333  0.37373234    -0.82470
O409        O  0.04775088  0.90622992  0.34939419    -0.82480
O410        O  0.29277625  0.76178122  0.36193357    -0.82420
O411        O  0.05493309  0.96210421  0.40505019    -0.82540
O412        O  0.28663810  0.70864531  0.41834798    -0.82460
O413        O  0.04797356  0.73551662  0.38460375    -0.82450
O414        O  0.29210479  0.90327878  0.35154072    -0.82480
C415        C  0.28395142  0.91383245  0.39954878     1.07240
C416        C  0.08969190  0.72465014  0.39613358     1.07130
C417        C  0.06007254  0.92079581  0.39366393     1.07270
C418        C  0.27964808  0.74905018  0.40615238     1.07140
O419        O  0.23950321  0.71466536  0.65039718    -0.82450
O420        O  0.09542367  0.95952916  0.63813003    -0.82520
O421        O  0.28598661  0.95496994  0.58491007    -0.82460
O422        O  0.02513326  0.77748186  0.62662868    -0.82440
O423        O  0.06895750  0.71478935  0.61560400    -0.82490
O424        O  0.23639549  0.95908422  0.64809452    -0.82460
O425        O  0.29533036  0.72178194  0.59465079    -0.82420
O426        O  0.04213148  0.95367569  0.58188455    -0.82490
Co427      Co  0.26604708  0.66669133  0.36630043     1.51530
Co428      Co  0.05786548  0.00541707  0.68009421     1.51690
Co429      Co  0.33338833  0.93298016  0.30040789     1.51570
Co430      Co  0.33844013  0.72447719  0.65307115     1.51470
O431        O  0.32760524  0.99433005  0.33316949    -1.44380
C432        C  0.25404282  0.72698464  0.60611342     1.07170
C433        C  0.08254101  0.94650584  0.59392583     1.07260
C434        C  0.24693049  0.95083195  0.60009961     1.07200
C435        C  0.05810551  0.75651442  0.60409373     1.07170
O436        O  0.21593710  0.88519070  0.58134872    -0.82450
O437        O  0.06039268  0.81285321  0.54039000    -0.82470
O438        O  0.12313086  0.93151034  0.51608706    -0.82480
O439        O  0.21160747  0.74260339  0.52843636    -0.82420
O440        O  0.11603144  0.87571230  0.57186276    -0.82500
O441        O  0.21746965  0.79585130  0.58475735    -0.82460
O442        O  0.12313153  0.76908749  0.55134583    -0.82450
O443        O  0.21206166  0.93473807  0.51813087    -0.82480
C444        C  0.22022269  0.92421341  0.56614699     1.07240
C445        C  0.08140593  0.77988729  0.56288905     1.07130
C446        C  0.11089160  0.91700509  0.56042066     1.07270
C447        C  0.22459647  0.75543705  0.57266692     1.07140
O448        O  0.26470649  0.79007173  0.48369189    -0.82450
O449        O  0.07570609  0.87836313  0.47139445    -0.82520
O450        O  0.21823690  0.88292739  0.41830931    -0.82460
O451        O  0.14609789  0.72714265  0.45967780    -0.82440
O452        O  0.10223159  0.78981266  0.44864622    -0.82490
O453        O  0.26778905  0.87904410  0.48153990    -0.82460
O454        O  0.20888824  0.78276169  0.42798325    -0.82420
O455        O  0.12891737  0.88422713  0.41502188    -0.82490
Co456      Co  0.23802649  0.83780576  0.53267629     1.51530
Co457      Co  0.11334203  0.83259100  0.51343197     1.51690
Co458      Co  0.17084676  0.90489747  0.46703738     1.51570
Co459      Co  0.16579284  0.78015790  0.48644227     1.51470
O460        O  0.17673286  0.84358536  0.49985235    -1.44380
C461        C  0.25018134  0.77761935  0.43945720     1.07170
C462        C  0.08851218  0.89134840  0.42713708     1.07260
C463        C  0.25726350  0.88720645  0.43352454     1.07200
C464        C  0.11307428  0.74807565  0.43720082     1.07170
O465        O  0.28826850  0.95304322  0.74795922    -0.82450
O466        O  0.11093861  0.69178948  0.70724937    -0.82470
O467        O  0.04794855  0.90651464  0.68305996    -0.82480
O468        O  0.29267598  0.76212992  0.69506482    -0.82420
O469        O  0.05522847  0.96241713  0.73864552    -0.82540
O470        O  0.28672078  0.70894561  0.75146739    -0.82460
O471        O  0.04822826  0.73561053  0.71829041    -0.82450
O472        O  0.29206835  0.90337572  0.68490056    -0.82480
C473        C  0.28400937  0.91398503  0.73290804     1.07240
C474        C  0.08998548  0.72482421  0.72969550     1.07130
C475        C  0.06031988  0.92110282  0.72730208     1.07270
C476        C  0.27969386  0.74936398  0.73933717     1.07140
O477        O  0.23984082  0.71466010  0.98380389    -0.82450
O478        O  0.09523923  0.95942685  0.97173964    -0.82520
O479        O  0.28631841  0.95510025  0.91883215    -0.82460
O480        O  0.02515966  0.77751269  0.95974447    -0.82440
O481        O  0.06897322  0.71481369  0.94863642    -0.82490
O482        O  0.23675307  0.95889953  0.98202224    -0.82460
O483        O  0.29572241  0.72192479  0.92817480    -0.82420
O484        O  0.04206267  0.95356354  0.91530123    -0.82490
Co485      Co  0.26609103  0.66694698  0.69946551     1.51530
Co486      Co  0.05764407  0.00515710  0.01376801     1.51690
Co487      Co  0.33333017  0.93302857  0.63370838     1.51570
Co488      Co  0.33879316  0.72447221  0.98666385     1.51470
O489        O  0.32751769  0.99444046  0.66628998    -1.44380
C490        C  0.25441856  0.72706576  0.93957240     1.07170
C491        C  0.08247026  0.94648402  0.92746310     1.07260
C492        C  0.24727616  0.95084312  0.93398520     1.07200
C493        C  0.05818173  0.75657442  0.93726309     1.07170
O494        O  0.21636980  0.88522266  0.91501715    -0.82450
O495        O  0.06062582  0.81299634  0.87373641    -0.82470
O496        O  0.12339690  0.93172055  0.84983857    -0.82480
O497        O  0.21192991  0.74279282  0.86192033    -0.82420
O498        O  0.11619554  0.87581211  0.90543647    -0.82500
O499        O  0.21791822  0.79597187  0.91828152    -0.82460
O500        O  0.12337567  0.76927831  0.88488045    -0.82450
O501        O  0.21239508  0.93489122  0.85194060    -0.82480
C502        C  0.22060579  0.92427483  0.89992418     1.07240
C503        C  0.08160188  0.78002163  0.89625038     1.07130
C504        C  0.11099746  0.91710942  0.89404578     1.07270
C505        C  0.22498809  0.75557021  0.90614764     1.07140
O506        O  0.26497181  0.79026716  0.81704716    -0.82450
O507        O  0.07595280  0.87859646  0.80498323    -0.82520
O508        O  0.21839284  0.88313519  0.75198137    -0.82460
O509        O  0.14639297  0.72738006  0.79322257    -0.82440
O510        O  0.10256225  0.79004975  0.78208650    -0.82490
O511        O  0.26806742  0.87926104  0.81504281    -0.82460
O512        O  0.20903997  0.78310358  0.76147841    -0.82420
O513        O  0.12918667  0.88460072  0.74870016    -0.82490
Co514      Co  0.23838117  0.83795090  0.86618555     1.51530
Co515      Co  0.11359613  0.83277236  0.84694018     1.51690
Co516      Co  0.17111647  0.90514645  0.80078693     1.51570
Co517      Co  0.16605310  0.78039869  0.82001975     1.51470
O518        O  0.17700573  0.84380700  0.83351197    -1.44380
C519        C  0.25034765  0.77790529  0.77281809     1.07170
C520        C  0.08877386  0.89166805  0.76077803     1.07260
C521        C  0.25744520  0.88739263  0.76704826     1.07200
C522        C  0.11338626  0.74829640  0.77070576     1.07170
O523        O  0.62161704  0.28604975  0.08136395    -0.82450
O524        O  0.44429996  0.02486226  0.04077350    -0.82470
O525        O  0.38147087  0.23967211  0.01631810    -0.82480
O526        O  0.62609040  0.09521654  0.02856491    -0.82420
O527        O  0.38879251  0.29553557  0.07196226    -0.82540
O528        O  0.62017067  0.04204530  0.08497680    -0.82460
O529        O  0.38161337  0.06875535  0.05163559    -0.82450
O530        O  0.62550575  0.23643371  0.01821514    -0.82480
C531        C  0.61743758  0.24698924  0.06624325     1.07240
C532        C  0.42335170  0.05794625  0.06312495     1.07130
C533        C  0.39386805  0.25422975  0.06055591     1.07270
C534        C  0.61313072  0.08245727  0.07284556     1.07140
O535        O  0.57312590  0.04785539  0.31714719    -0.82450
O536        O  0.42855556  0.29309222  0.30470520    -0.82520
O537        O  0.61960640  0.28870600  0.25174518    -0.82460
O538        O  0.35828926  0.11069508  0.29276953    -0.82440
O539        O  0.40217427  0.04802146  0.28184181    -0.82490
O540        O  0.57009597  0.29244160  0.31498839    -0.82460
O541        O  0.62895359  0.05501958  0.26141563    -0.82420
O542        O  0.37540464  0.28714876  0.24827189    -0.82490
Co543      Co  0.59957344  0.00009463  0.03290834     1.51530
Co544      Co  0.39091846  0.33884159  0.34674082     1.51690
Co545      Co  0.66666176  0.26624200  0.96703103     1.51570
Co546      Co  0.67206945  0.05765109  0.31982739     1.51470
O547        O  0.66073303  0.32757671  0.99982741    -1.44380
C548        C  0.58767158  0.06023934  0.27290078     1.07170
C549        C  0.41581077  0.28005010  0.26045427     1.07260
C550        C  0.58060741  0.28432570  0.26695907     1.07200
C551        C  0.39137435  0.08977308  0.27040914     1.07170
O552        O  0.54982881  0.21854084  0.24826563    -0.82450
O553        O  0.39396128  0.14632098  0.20707997    -0.82470
O554        O  0.45684008  0.26499209  0.18288741    -0.82480
O555        O  0.54518761  0.07600038  0.19533323    -0.82420
O556        O  0.44950430  0.20924148  0.23867951    -0.82500
O557        O  0.55123841  0.12919166  0.25169355    -0.82460
O558        O  0.45664107  0.10247149  0.21814955    -0.82450
O559        O  0.54583590  0.26804673  0.18498074    -0.82480
C560        C  0.55402393  0.25757055  0.23300801     1.07240
C561        C  0.41487084  0.11325906  0.22950169     1.07130
C562        C  0.44435192  0.25052247  0.22713824     1.07270
C563        C  0.55824885  0.08877823  0.23955089     1.07140
O564        O  0.59835460  0.12333392  0.15055386    -0.82450
O565        O  0.40939477  0.21177573  0.13823732    -0.82520
O566        O  0.55189014  0.21599040  0.08525147    -0.82460
O567        O  0.47978942  0.06055070  0.12658486    -0.82440
O568        O  0.43590704  0.12319786  0.11551724    -0.82490
O569        O  0.60151445  0.21229585  0.14836299    -0.82460
O570        O  0.54247458  0.11624408  0.09489283    -0.82420
O571        O  0.46264936  0.21753936  0.08192448    -0.82490
Co572      Co  0.57177552  0.17111064  0.19957052     1.51530
Co573      Co  0.44695995  0.16602341  0.18031354     1.51690
Co574      Co  0.50457652  0.23820556  0.13392908     1.51570
Co575      Co  0.49940480  0.11358523  0.15335802     1.51470
O576        O  0.51038798  0.17697337  0.16688779    -1.44380
C577        C  0.58376674  0.11099246  0.10630190     1.07170
C578        C  0.42224957  0.22473599  0.09400720     1.07260
C579        C  0.59092296  0.22032991  0.10034320     1.07200
C580        C  0.44675180  0.08144875  0.10411376     1.07170
O581        O  0.62197622  0.28623365  0.41479037    -0.82450
O582        O  0.44403423  0.02493525  0.37346897    -0.82470
O583        O  0.38110704  0.23991829  0.34932662    -0.82480
O584        O  0.62630659  0.09529183  0.36178662    -0.82420
O585        O  0.38827183  0.29568976  0.40512559    -0.82540
O586        O  0.62033678  0.04212653  0.41818561    -0.82460
O587        O  0.38138020  0.06885272  0.38438732    -0.82450
O588        O  0.62578540  0.23674058  0.35151734    -0.82480
C589        C  0.61760803  0.24724104  0.39954276     1.07240
C590        C  0.42312408  0.05802247  0.39583603     1.07130
C591        C  0.39347565  0.25441380  0.39360992     1.07270
C592        C  0.61324260  0.08252643  0.40600741     1.07140
O593        O  0.57301475  0.04794745  0.65014788    -0.82450
O594        O  0.42842154  0.29256590  0.63803578    -0.82520
O595        O  0.61953186  0.28824708  0.58504368    -0.82460
O596        O  0.35837113  0.11082325  0.62602030    -0.82440
O597        O  0.40204294  0.04804935  0.61485172    -0.82490
O598        O  0.56995514  0.29212855  0.64824238    -0.82460
O599        O  0.62884971  0.05521217  0.59445540    -0.82420
O600        O  0.37522285  0.28658192  0.58166448    -0.82490
Co601      Co  0.59975385  0.00013625  0.36615782     1.51530
Co602      Co  0.39080257  0.33831620  0.68008509     1.51690
Co603      Co  0.66699874  0.26660392  0.30039877     1.51570
Co604      Co  0.67193890  0.05778850  0.65294212     1.51470
O605        O  0.66120729  0.32786843  0.33332581    -1.44380
C606        C  0.58754714  0.06033515  0.60588604     1.07170
C607        C  0.41564614  0.27957758  0.59377129     1.07260
C608        C  0.58048028  0.28403462  0.60021267     1.07200
C609        C  0.39131692  0.08981852  0.60345508     1.07170
O610        O  0.54937130  0.21849088  0.58127160    -0.82450
O611        O  0.39378643  0.14618747  0.53982315    -0.82470
O612        O  0.45659046  0.26490481  0.51608403    -0.82480
O613        O  0.54506125  0.07596085  0.52820230    -0.82420
O614        O  0.44940292  0.20893842  0.57160240    -0.82500
O615        O  0.55088115  0.12917889  0.58456551    -0.82460
O616        O  0.45649671  0.10242879  0.55094514    -0.82450
O617        O  0.54560526  0.26812383  0.51816945    -0.82480
C618        C  0.55374834  0.25751484  0.56616170     1.07240
C619        C  0.41473478  0.11320627  0.56235057     1.07130
C620        C  0.44419588  0.25024926  0.56028194     1.07270
C621        C  0.55805160  0.08877615  0.57244742     1.07140
O622        O  0.59821000  0.12345722  0.48357701    -0.82450
O623        O  0.40919168  0.21179242  0.47114184    -0.82520
O624        O  0.55176629  0.21652533  0.41821890    -0.82460
O625        O  0.47959539  0.06057286  0.45928687    -0.82440
O626        O  0.43576707  0.12325414  0.44817827    -0.82490
O627        O  0.60130693  0.21241637  0.48147653    -0.82460
O628        O  0.54245108  0.11619737  0.42777459    -0.82420
O629        O  0.46241319  0.21792516  0.41484812    -0.82490
Co630      Co  0.57148532  0.17115966  0.53255176     1.51530
Co631      Co  0.44679992  0.16594234  0.51305728     1.51690
Co632      Co  0.50435649  0.23840425  0.46699315     1.51570
Co633      Co  0.49927968  0.11355640  0.48615289     1.51470
O634        O  0.51021406  0.17699090  0.49963478    -1.44380
C635        C  0.58373014  0.11103869  0.43931180     1.07170
C636        C  0.42199360  0.22493970  0.42696587     1.07260
C637        C  0.59081844  0.22065439  0.43346204     1.07200
C638        C  0.44657004  0.08149789  0.43680144     1.07170
O639        O  0.62171814  0.28590004  0.74811871    -0.82450
O640        O  0.44396527  0.02506746  0.70655259    -0.82470
O641        O  0.38104933  0.23936061  0.68276570    -0.82480
O642        O  0.62611355  0.09538786  0.69494176    -0.82420
O643        O  0.38817288  0.29517304  0.73851277    -0.82540
O644        O  0.62034768  0.04211302  0.75121406    -0.82460
O645        O  0.38127504  0.06885904  0.71774225    -0.82450
O646        O  0.62560852  0.23638256  0.68486209    -0.82480
C647        C  0.61740841  0.24688798  0.73288039     1.07240
C648        C  0.42301630  0.05799940  0.72917829     1.07130
C649        C  0.39338992  0.25388411  0.72705319     1.07270
C650        C  0.61312342  0.08250910  0.73915806     1.07140
O651        O  0.57295328  0.04781842  0.98383998    -0.82450
O652        O  0.42889485  0.29277987  0.97142996    -0.82520
O653        O  0.61926529  0.28822330  0.91832578    -0.82460
O654        O  0.35854307  0.11055216  0.95992199    -0.82440
O655        O  0.40242031  0.04787161  0.94905623    -0.82490
O656        O  0.56971694  0.29200041  0.98154238    -0.82460
O657        O  0.62877584  0.05490475  0.92809636    -0.82420
O658        O  0.37558214  0.28687760  0.91522862    -0.82490
Co659      Co  0.59965829  0.00022215  0.69919876     1.51530
Co660      Co  0.39127821  0.33860837  0.01347066     1.51690
Co661      Co  0.66688820  0.26620465  0.63379116     1.51570
Co662      Co  0.67186362  0.05760130  0.98655778     1.51470
O663        O  0.66104938  0.32751932  0.66664063    -1.44380
C664        C  0.58747895  0.06007161  0.93951541     1.07170
C665        C  0.41599720  0.27969317  0.92725403     1.07260
C666        C  0.58025280  0.28387894  0.93351892     1.07200
C667        C  0.39154523  0.08957526  0.93745726     1.07170
O668        O  0.54939613  0.21817049  0.91470263    -0.82450
O669        O  0.39384181  0.14592686  0.87378683    -0.82470
O670        O  0.45659125  0.26458867  0.84942031    -0.82480
O671        O  0.54505611  0.07560567  0.86172928    -0.82420
O672        O  0.44945560  0.20882838  0.90523822    -0.82500
O673        O  0.55084309  0.12886790  0.91804558    -0.82460
O674        O  0.45655114  0.10208279  0.88462117    -0.82450
O675        O  0.54552188  0.26772164  0.85148389    -0.82480
C676        C  0.55364999  0.25720085  0.89951010     1.07240
C677        C  0.41484475  0.11292532  0.89623113     1.07130
C678        C  0.44433596  0.25012394  0.89376850     1.07270
C679        C  0.55801371  0.08845679  0.90598368     1.07140
O680        O  0.59809264  0.12311715  0.81695345    -0.82450
O681        O  0.40912404  0.21145317  0.80477319    -0.82520
O682        O  0.55168513  0.21594274  0.75162114    -0.82460
O683        O  0.47943267  0.06023596  0.79281444    -0.82440
O684        O  0.43561537  0.12296860  0.78198023    -0.82490
O685        O  0.60123386  0.21204787  0.81485539    -0.82460
O686        O  0.54227565  0.11586784  0.76123117    -0.82420
O687        O  0.46229817  0.21733064  0.74833939    -0.82490
Co688      Co  0.57144447  0.17081097  0.86598816     1.51530
Co689      Co  0.44676515  0.16567977  0.84680483     1.51690
Co690      Co  0.50428926  0.23793177  0.80036461     1.51570
Co691      Co  0.49920802  0.11319044  0.81971957     1.51470
O692        O  0.51014880  0.17662151  0.83318197    -1.44380
C693        C  0.58358349  0.11082370  0.77264519     1.07170
C694        C  0.42189075  0.22443488  0.76049259     1.07260
C695        C  0.59071666  0.22022158  0.76683483     1.07200
C696        C  0.44642559  0.08125891  0.77038558     1.07170
O697        O  0.62166640  0.61952552  0.08138464    -0.82450
O698        O  0.44424208  0.35849410  0.04023173    -0.82470
O699        O  0.38122844  0.57312245  0.01638370    -0.82480
O700        O  0.62574587  0.42856597  0.02829929    -0.82420
O701        O  0.38854444  0.62902574  0.07195291    -0.82540
O702        O  0.61988378  0.37537134  0.08469855    -0.82460
O703        O  0.38144701  0.40214300  0.05139777    -0.82450
O704        O  0.62549302  0.56987435  0.01830033    -0.82480
C705        C  0.61739060  0.58047506  0.06630413     1.07240
C706        C  0.42322040  0.39143605  0.06277959     1.07130
C707        C  0.39361528  0.58771300  0.06061535     1.07270
C708        C  0.61279899  0.41578320  0.07257727     1.07140
O709        O  0.57322019  0.38137561  0.31718397    -0.82450
O710        O  0.42842031  0.62574099  0.30523848    -0.82520
O711        O  0.61965476  0.62154050  0.25216017    -0.82460
O712        O  0.35829015  0.44437253  0.29314123    -0.82440
O713        O  0.40199878  0.38160636  0.28199798    -0.82490
O714        O  0.57006105  0.62548761  0.31532726    -0.82460
O715        O  0.62902543  0.38870056  0.26147748    -0.82420
O716        O  0.37525587  0.61982592  0.24880184    -0.82490
Co717      Co  0.59941774  0.33333472  0.03264297     1.51530
Co718      Co  0.39085584  0.67159376  0.34714794     1.51690
Co719      Co  0.66671635  0.59959757  0.96711150     1.51570
Co720      Co  0.67213325  0.39131849  0.31993988     1.51470
O721        O  0.66084781  0.66100409  0.99973672    -1.44380
C722        C  0.58772083  0.39373734  0.27290207     1.07170
C723        C  0.41566681  0.61278381  0.26096121     1.07260
C724        C  0.58060495  0.61733350  0.26731491     1.07200
C725        C  0.39125931  0.42336533  0.27061677     1.07170
O726        O  0.54969412  0.55169901  0.24834577    -0.82450
O727        O  0.39376513  0.47957693  0.20683996    -0.82470
O728        O  0.45667018  0.59819448  0.18331445    -0.82480
O729        O  0.54507371  0.40926729  0.19528946    -0.82420
O730        O  0.44943957  0.54218522  0.23875332    -0.82500
O731        O  0.55104038  0.46251029  0.25154754    -0.82460
O732        O  0.45649851  0.43590389  0.21825612    -0.82450
O733        O  0.54569654  0.60138788  0.18530172    -0.82480
C734        C  0.55392318  0.59075821  0.23327119     1.07240
C735        C  0.41471391  0.44668449  0.22953126     1.07130
C736        C  0.44424448  0.58349911  0.22747846     1.07270
C737        C  0.55817823  0.42211365  0.23946983     1.07140
O738        O  0.59812456  0.45669183  0.15030517    -0.82450
O739        O  0.40921806  0.54519099  0.13827298    -0.82520
O740        O  0.55167300  0.54975797  0.08530666    -0.82460
O741        O  0.47942540  0.39388796  0.12660318    -0.82440
O742        O  0.43580156  0.45664816  0.11520630    -0.82490
O743        O  0.60136317  0.54568776  0.14836443    -0.82460
O744        O  0.54215092  0.44949888  0.09479888    -0.82420
O745        O  0.46246873  0.55121102  0.08203138    -0.82490
Co746      Co  0.57161067  0.50441076  0.19947118     1.51530
Co747      Co  0.44681230  0.49928096  0.18013910     1.51690
Co748      Co  0.50438932  0.57169369  0.13416361     1.51570
Co749      Co  0.49918924  0.44689142  0.15337668     1.51470
O750        O  0.51024831  0.51031046  0.16678492    -1.44380
C751        C  0.58346577  0.44430857  0.10609920     1.07170
C752        C  0.42205592  0.55827964  0.09409005     1.07260
C753        C  0.59074884  0.55390484  0.10038757     1.07200
C754        C  0.44654517  0.41486598  0.10390577     1.07170
O755        O  0.62178824  0.61938077  0.41521983    -0.82450
O756        O  0.44391555  0.35848247  0.37359832    -0.82470
O757        O  0.38084724  0.57268275  0.34991702    -0.82480
O758        O  0.62628501  0.42884931  0.36201763    -0.82420
O759        O  0.38807470  0.62853177  0.40559839    -0.82540
O760        O  0.62047778  0.37554559  0.41825842    -0.82460
O761        O  0.38124264  0.40231823  0.38477446    -0.82450
O762        O  0.62573876  0.56978374  0.35204537    -0.82480
C763        C  0.61747269  0.58035638  0.40002745     1.07240
C764        C  0.42298799  0.39144271  0.39618529     1.07130
C765        C  0.39326292  0.58724226  0.39414986     1.07270
C766        C  0.61324831  0.41595316  0.40621249     1.07140
O767        O  0.57307387  0.38104866  0.65045846    -0.82450
O768        O  0.42842227  0.62618803  0.63819221    -0.82520
O769        O  0.61939164  0.62146932  0.58529216    -0.82460
O770        O  0.35797432  0.44372867  0.62612856    -0.82440
O771        O  0.40192889  0.38109011  0.61528463    -0.82490
O772        O  0.56976356  0.62553208  0.64845151    -0.82460
O773        O  0.62889045  0.38836050  0.59474940    -0.82420
O774        O  0.37521048  0.62024417  0.58181490    -0.82490
Co775      Co  0.59989937  0.33364058  0.36615224     1.51530
Co776      Co  0.39084789  0.67203109  0.68014587     1.51690
Co777      Co  0.66700547  0.59955009  0.30091736     1.51570
Co778      Co  0.67200584  0.39095206  0.65321607     1.51470
O779        O  0.66119717  0.66086185  0.33367085    -1.44380
C780        C  0.58758706  0.39345176  0.60620478     1.07170
C781        C  0.41561360  0.61309563  0.59398921     1.07260
C782        C  0.58033115  0.61728572  0.60047205     1.07200
C783        C  0.39109718  0.42282126  0.60380237     1.07170
O784        O  0.54932028  0.55163918  0.58173295    -0.82450
O785        O  0.39372239  0.47942111  0.54055796    -0.82470
O786        O  0.45647263  0.59804921  0.51636942    -0.82480
O787        O  0.54499879  0.40906895  0.52860922    -0.82420
O788        O  0.44930204  0.54228588  0.57218331    -0.82500
O789        O  0.55084029  0.46226894  0.58500700    -0.82460
O790        O  0.45635449  0.43545855  0.55139916    -0.82450
O791        O  0.54543271  0.60121428  0.51853010    -0.82480
C792        C  0.55362145  0.59066337  0.56653108     1.07240
C793        C  0.41460749  0.44630168  0.56287537     1.07130
C794        C  0.44409940  0.58356645  0.56065151     1.07270
C795        C  0.55804348  0.42188124  0.57283195     1.07140
O796        O  0.59813538  0.45661194  0.48399205    -0.82450
O797        O  0.40907933  0.54483964  0.47177101    -0.82520
O798        O  0.55168490  0.54948007  0.41869590    -0.82460
O799        O  0.47948436  0.39371356  0.45967243    -0.82440
O800        O  0.43561260  0.45642535  0.44891758    -0.82490
O801        O  0.60120178  0.54555728  0.48197575    -0.82460
O802        O  0.54235928  0.44936258  0.42821567    -0.82420
O803        O  0.46224720  0.55081656  0.41534572    -0.82490
Co804      Co  0.57141278  0.50428288  0.53302951     1.51530
Co805      Co  0.44671337  0.49912079  0.51377074     1.51690
Co806      Co  0.50422817  0.57141982  0.46739244     1.51570
Co807      Co  0.49918018  0.44666446  0.48662400     1.51470
O808        O  0.51010319  0.51009047  0.50019914    -1.44380
C809        C  0.58366233  0.44428713  0.43967913     1.07170
C810        C  0.42182885  0.55783901  0.42751193     1.07260
C811        C  0.59071341  0.55374126  0.43395530     1.07200
C812        C  0.44643574  0.41472238  0.43731400     1.07170
O813        O  0.62141849  0.61943620  0.74833509    -0.82450
O814        O  0.44376401  0.35804168  0.70695349    -0.82470
O815        O  0.38093086  0.57310878  0.68288907    -0.82480
O816        O  0.62616223  0.42852752  0.69522575    -0.82420
O817        O  0.38819661  0.62892580  0.73861086    -0.82540
O818        O  0.62022753  0.37527981  0.75153622    -0.82460
O819        O  0.38107859  0.40192286  0.71779159    -0.82450
O820        O  0.62545808  0.56981716  0.68516983    -0.82480
C821        C  0.61721099  0.58038179  0.73314977     1.07240
C822        C  0.42281356  0.39111909  0.72930464     1.07130
C823        C  0.39330945  0.58762516  0.72715312     1.07270
C824        C  0.61305881  0.41568727  0.73941544     1.07140
O825        O  0.57265275  0.38099638  0.98362053    -0.82450
O826        O  0.42871219  0.62611602  0.97143360    -0.82520
O827        O  0.61931387  0.62144876  0.91833452    -0.82460
O828        O  0.35830519  0.44398479  0.95972089    -0.82440
O829        O  0.40215005  0.38131155  0.94857430    -0.82490
O830        O  0.56975513  0.62553733  0.98156799    -0.82460
O831        O  0.62844801  0.38826310  0.92787778    -0.82420
O832        O  0.37539549  0.62028865  0.91522491    -0.82490
Co833      Co  0.59971519  0.33331707  0.69943444     1.51530
Co834      Co  0.39119226  0.67202609  0.01341317     1.51690
Co835      Co  0.66675307  0.59952234  0.63408608     1.51570
Co836      Co  0.67158023  0.39100823  0.98629423     1.51470
O837        O  0.66088929  0.66090194  0.66678991    -1.44380
C838        C  0.58715354  0.39337708  0.93934457     1.07170
C839        C  0.41579723  0.61305986  0.92726158     1.07260
C840        C  0.58027625  0.61724700  0.93357464     1.07200
C841        C  0.39125280  0.42303153  0.93711736     1.07170
O842        O  0.54917158  0.55160302  0.91482979    -0.82450
O843        O  0.39349792  0.47939707  0.87347221    -0.82470
O844        O  0.45643533  0.59805532  0.84949503    -0.82480
O845        O  0.54470629  0.40903957  0.86166290    -0.82420
O846        O  0.44913936  0.54219667  0.90513524    -0.82500
O847        O  0.55050093  0.46222637  0.91808083    -0.82460
O848        O  0.45623616  0.43559301  0.88439147    -0.82450
O849        O  0.54537498  0.60116307  0.85162655    -0.82480
C850        C  0.55353240  0.59062163  0.89963621     1.07240
C851        C  0.41451536  0.44641391  0.89593202     1.07130
C852        C  0.44410756  0.58351491  0.89376547     1.07270
C853        C  0.55765334  0.42182538  0.90593859     1.07140
O854        O  0.59790114  0.45647778  0.81710081    -0.82450
O855        O  0.40890982  0.54497879  0.80470449    -0.82520
O856        O  0.55152222  0.54941366  0.75178972    -0.82460
O857        O  0.47928236  0.39369544  0.79274228    -0.82440
O858        O  0.43537867  0.45635058  0.78178027    -0.82490
O859        O  0.60105135  0.54543957  0.81505491    -0.82460
O860        O  0.54219020  0.44926877  0.76121942    -0.82420
O861        O  0.46215195  0.55093918  0.74839210    -0.82490
Co862      Co  0.57119403  0.50420051  0.86610568     1.51530
Co863      Co  0.44648646  0.49911129  0.84663476     1.51690
Co864      Co  0.50413092  0.57142919  0.80047068     1.51570
Co865      Co  0.49898406  0.44667001  0.81959479     1.51470
O866        O  0.50992268  0.51007151  0.83317765    -1.44380
C867        C  0.58347000  0.44411766  0.77277943     1.07170
C868        C  0.42174870  0.55809338  0.76052815     1.07260
C869        C  0.59053809  0.55368464  0.76705187     1.07200
C870        C  0.44622122  0.41460692  0.77031890     1.07170
O871        O  0.62155758  0.95269908  0.08163340    -0.82450
O872        O  0.44424466  0.69169272  0.04018032    -0.82470
O873        O  0.38138548  0.90622228  0.01650048    -0.82480
O874        O  0.62601572  0.76201798  0.02835789    -0.82420
O875        O  0.38871365  0.96194913  0.07232969    -0.82540
O876        O  0.62026425  0.70873906  0.08462972    -0.82460
O877        O  0.38152947  0.73541629  0.05152517    -0.82450
O878        O  0.62550134  0.90315800  0.01838012    -0.82480
C879        C  0.61736829  0.91365506  0.06641559     1.07240
C880        C  0.42329075  0.72458857  0.06287457     1.07130
C881        C  0.39376625  0.92065852  0.06080844     1.07270
C882        C  0.61309552  0.74914814  0.07260791     1.07140
O883        O  0.57327356  0.71441117  0.31731813    -0.82450
O884        O  0.42860891  0.95941921  0.30474281    -0.82520
O885        O  0.61949557  0.95501826  0.25185014    -0.82460
O886        O  0.35833610  0.77698711  0.29309762    -0.82440
O887        O  0.40214507  0.71427078  0.28227470    -0.82490
O888        O  0.56994488  0.95888174  0.31505983    -0.82460
O889        O  0.62911809  0.72151771  0.26160381    -0.82420
O890        O  0.37542850  0.95341874  0.24835051    -0.82490
Co891      Co  0.59958636  0.66682835  0.03260917     1.51530
Co892      Co  0.39102694  0.00526312  0.34666405     1.51690
Co893      Co  0.66671436  0.93296657  0.96724367     1.51570
Co894      Co  0.67219094  0.72424219  0.32007334     1.51470
O895        O  0.66090081  0.99422344  0.00012947    -1.44380
C896        C  0.58781899  0.72668146  0.27301968     1.07170
C897        C  0.41582492  0.94628834  0.26055533     1.07260
C898        C  0.58048420  0.95068277  0.26705487     1.07200
C899        C  0.39140123  0.75601255  0.27075020     1.07170
O900        O  0.54979848  0.88484556  0.24836324    -0.82450
O901        O  0.39398864  0.81249041  0.20730686    -0.82470
O902        O  0.45676217  0.93120010  0.18301046    -0.82480
O903        O  0.54529259  0.74227236  0.19535588    -0.82420
O904        O  0.44950678  0.87546095  0.23884796    -0.82500
O905        O  0.55124702  0.79551637  0.25166751    -0.82460
O906        O  0.45666264  0.76863765  0.21830685    -0.82450
O907        O  0.54569201  0.93438393  0.18510909    -0.82480
C908        C  0.55391434  0.92389758  0.23312626     1.07240
C909        C  0.41490094  0.77943529  0.22973699     1.07130
C910        C  0.44433683  0.91673706  0.22728092     1.07270
C911        C  0.55836164  0.75511087  0.23955974     1.07140
O912        O  0.59830145  0.78978516  0.15046449    -0.82450
O913        O  0.40931025  0.87803590  0.13841287    -0.82520
O914        O  0.55184617  0.88245639  0.08530845    -0.82460
O915        O  0.47968834  0.72684757  0.12652706    -0.82440
O916        O  0.43587947  0.78956921  0.11562099    -0.82490
O917        O  0.60145102  0.87875987  0.14844190    -0.82460
O918        O  0.54236511  0.78260592  0.09490225    -0.82420
O919        O  0.46253451  0.88382342  0.08205306    -0.82490
Co920      Co  0.57174483  0.83747779  0.19958815     1.51530
Co921      Co  0.44693982  0.83227638  0.18046302     1.51690
Co922      Co  0.50448241  0.90451335  0.13403096     1.51570
Co923      Co  0.49937895  0.77983619  0.15344806     1.51470
O924        O  0.51034498  0.84326594  0.16696130    -1.44380
C925        C  0.58368676  0.77750776  0.10619766     1.07170
C926        C  0.42214100  0.89105068  0.09418361     1.07260
C927        C  0.59085878  0.88688449  0.10043985     1.07200
C928        C  0.44669729  0.74785779  0.10406200     1.07170
O929        O  0.62177957  0.95276115  0.41486966    -0.82450
O930        O  0.44388005  0.69119055  0.37401301    -0.82470
O931        O  0.38107355  0.90630102  0.34942955    -0.82480
O932        O  0.62637333  0.76188647  0.36200028    -0.82420
O933        O  0.38837118  0.96214090  0.40510765    -0.82540
O934        O  0.62043958  0.70873467  0.41842695    -0.82460
O935        O  0.38128506  0.73520917  0.38481218    -0.82450
O936        O  0.62564806  0.90318784  0.35166686    -0.82480
C937        C  0.61746370  0.91374092  0.39966845     1.07240
C938        C  0.42301749  0.72434581  0.39629543     1.07130
C939        C  0.39348818  0.92083817  0.39366840     1.07270
C940        C  0.61330055  0.74912181  0.40622803     1.07140
O941        O  0.57293995  0.71450248  0.65039759    -0.82450
O942        O  0.42850229  0.95947819  0.63787247    -0.82520
O943        O  0.61939265  0.95496533  0.58491354    -0.82460
O944        O  0.35819134  0.77741493  0.62610848    -0.82440
O945        O  0.40200497  0.71469921  0.61525236    -0.82490
O946        O  0.56982067  0.95899437  0.64812386    -0.82460
O947        O  0.62881344  0.72163961  0.59472782    -0.82420
O948        O  0.37527957  0.95345082  0.58156455    -0.82490
Co949      Co  0.59985395  0.66673896  0.36642660     1.51530
Co950      Co  0.39093750  0.00539793  0.67975735     1.51690
Co951      Co  0.66687754  0.93295268  0.30053140     1.51570
Co952      Co  0.67190312  0.72430372  0.65320840     1.51470
O953        O  0.66107745  0.99425777  0.33334670    -1.44380
C954        C  0.58751092  0.72685234  0.60614310     1.07170
C955        C  0.41568611  0.94636911  0.59368212     1.07260
C956        C  0.58034634  0.95077275  0.60012167     1.07200
C957        C  0.39122412  0.75642594  0.60370515     1.07170
O958        O  0.54930796  0.88513380  0.58138965    -0.82450
O959        O  0.39374140  0.81276688  0.54007578    -0.82470
O960        O  0.45652477  0.93144271  0.51601015    -0.82480
O961        O  0.54505557  0.74251159  0.52845744    -0.82420
O962        O  0.44932506  0.87560917  0.57171178    -0.82500
O963        O  0.55091799  0.79574653  0.58480488    -0.82460
O964        O  0.45644280  0.76897407  0.55120095    -0.82450
O965        O  0.54547919  0.93466940  0.51815979    -0.82480
C966        C  0.55363054  0.92414898  0.56617671     1.07240
C967        C  0.41468010  0.77978212  0.56260904     1.07130
C968        C  0.44415986  0.91690273  0.56027033     1.07270
C969        C  0.55806532  0.75533473  0.57268869     1.07140
O970        O  0.59819894  0.79002830  0.48380239    -0.82450
O971        O  0.40913724  0.87825275  0.47124686    -0.82520
O972        O  0.55172257  0.88286810  0.41834970    -0.82460
O973        O  0.47960157  0.72702966  0.45959956    -0.82440
O974        O  0.43569295  0.78965850  0.44850445    -0.82490
O975        O  0.60122701  0.87898135  0.48163733    -0.82460
O976        O  0.54244796  0.78267258  0.42801086    -0.82420
O977        O  0.46237119  0.88424726  0.41493830    -0.82490
Co978      Co  0.57144629  0.83774094  0.53274308     1.51530
Co979      Co  0.44674225  0.83247796  0.51327783     1.51690
Co980      Co  0.50429095  0.90484046  0.46702521     1.51570
Co981      Co  0.49925647  0.78005644  0.48639406     1.51470
O982        O  0.51015959  0.84349848  0.49983017    -1.44380
C983        C  0.58373728  0.77759279  0.43953380     1.07170
C984        C  0.42195807  0.89133988  0.42705151     1.07260
C985        C  0.59074197  0.88712926  0.43360887     1.07200
C986        C  0.44651430  0.74789511  0.43716780     1.07170
O987        O  0.62169925  0.95288490  0.74794260    -0.82450
O988        O  0.44383296  0.69177302  0.70699152    -0.82470
O989        O  0.38103740  0.90648133  0.68285193    -0.82480
O990        O  0.62608717  0.76196987  0.69509952    -0.82420
O991        O  0.38824646  0.96243876  0.73836123    -0.82540
O992        O  0.62004180  0.70883045  0.75152958    -0.82460
O993        O  0.38118043  0.73567056  0.71787876    -0.82450
O994        O  0.62548996  0.90326846  0.68481612    -0.82480
C995        C  0.61736479  0.91385594  0.73282092     1.07240
C996        C  0.42291777  0.72485722  0.72936563     1.07130
C997        C  0.39338803  0.92111491  0.72708192     1.07270
C998        C  0.61298536  0.74922792  0.73932221     1.07140
O999        O  0.57291946  0.71454235  0.98354531    -0.82450
O1000       O  0.42888682  0.95934710  0.97184671    -0.82520
O1001       O  0.61935621  0.95509557  0.91858332    -0.82460
O1002       O  0.35855394  0.77748439  0.95990552    -0.82440
O1003       O  0.40223145  0.71475201  0.94854434    -0.82490
O1004       O  0.56979276  0.95887337  0.98177916    -0.82460
O1005       O  0.62875281  0.72182891  0.92785829    -0.82420
O1006       O  0.37560666  0.95365202  0.91552945    -0.82490
Co1007     Co  0.59951348  0.66680710  0.69951686     1.51530
Co1008     Co  0.39132734  0.00513000  0.01392549     1.51690
Co1009     Co  0.66676278  0.93298774  0.63367543     1.51570
Co1010     Co  0.67183547  0.72444413  0.98632972     1.51470
O1011       O  0.66093483  0.99435961  0.66636447    -1.44380
C1012       C  0.58745485  0.72695232  0.93929024     1.07170
C1013       C  0.41601759  0.94646294  0.92757618     1.07260
C1014       C  0.58033041  0.95079999  0.93374961     1.07200
C1015       C  0.39146310  0.75653250  0.93723270     1.07170
O1016       O  0.54944098  0.88515911  0.91478564    -0.82450
O1017       O  0.39377924  0.81301490  0.87369047    -0.82470
O1018       O  0.45663131  0.93167768  0.84971418    -0.82480
O1019       O  0.54496845  0.74269034  0.86162839    -0.82420
O1020       O  0.44950705  0.87574552  0.90529065    -0.82500
O1021       O  0.55091305  0.79586087  0.91802737    -0.82460
O1022       O  0.45649930  0.76920444  0.88454919    -0.82450
O1023       O  0.54558330  0.93480666  0.85168816    -0.82480
C1024       C  0.55370771  0.92420754  0.89968617     1.07240
C1025       C  0.41477463  0.77999216  0.89610327     1.07130
C1026       C  0.44438066  0.91706272  0.89398831     1.07270
C1027       C  0.55799532  0.75545618  0.90588054     1.07140
O1028       O  0.59808530  0.79016381  0.81692070    -0.82450
O1029       O  0.40910235  0.87866966  0.80483549    -0.82520
O1030       O  0.55159232  0.88316847  0.75172242    -0.82460
O1031       O  0.47940732  0.72738927  0.79280720    -0.82440
O1032       O  0.43554787  0.79006856  0.78186313    -0.82490
O1033       O  0.60122400  0.87911976  0.81486681    -0.82460
O1034       O  0.54224827  0.78299169  0.76120566    -0.82420
O1035       O  0.46229739  0.88466828  0.74847534    -0.82490
Co1036     Co  0.57146283  0.83785320  0.86598660     1.51530
Co1037     Co  0.44673342  0.83276343  0.84673877     1.51690
Co1038     Co  0.50428973  0.90512477  0.80055589     1.51570
Co1039     Co  0.49916134  0.78034031  0.81967351     1.51470
O1040       O  0.51014304  0.84373655  0.83319745    -1.44380
C1041       C  0.58354082  0.77778561  0.77266690     1.07170
C1042       C  0.42188921  0.89173420  0.76059931     1.07260
C1043       C  0.59066057  0.88730969  0.76686373     1.07200
C1044       C  0.44635582  0.74832436  0.77038639     1.07170
O1045       O  0.95499073  0.28591909  0.08149488    -0.82450
O1046       O  0.77729961  0.02487461  0.04038774    -0.82470
O1047       O  0.71442080  0.23962012  0.01601437    -0.82480
O1048       O  0.95944574  0.09520733  0.02861212    -0.82420
O1049       O  0.72150534  0.29541439  0.07180286    -0.82540
O1050       O  0.95354907  0.04201162  0.08500425    -0.82460
O1051       O  0.71460413  0.06872502  0.05136450    -0.82450
O1052       O  0.95892905  0.23634124  0.01828727    -0.82480
C1053       C  0.95071909  0.24689021  0.06628432     1.07240
C1054       C  0.75634583  0.05790879  0.06281934     1.07130
C1055       C  0.72673946  0.25412949  0.06030872     1.07270
C1056       C  0.94642108  0.08240967  0.07284345     1.07140
O1057       O  0.90623478  0.04776162  0.31696998    -0.82450
O1058       O  0.76220329  0.29303788  0.30458956    -0.82520
O1059       O  0.95255889  0.28841044  0.25142274    -0.82460
O1060       O  0.69172672  0.11065629  0.29301949    -0.82440
O1061       O  0.73553883  0.04796746  0.28188552    -0.82490
O1062       O  0.90297934  0.29231584  0.31462889    -0.82460
O1063       O  0.96198198  0.05493276  0.26112865    -0.82420
O1064       O  0.70889147  0.28727761  0.24834496    -0.82490
Co1065     Co  0.93293852  0.00005746  0.03297567     1.51530
Co1066     Co  0.72464674  0.33882857  0.34672564     1.51690
Co1067     Co  0.00017553  0.26613388  0.96720553     1.51570
Co1068     Co  0.00516399  0.05759504  0.31948675     1.51470
O1069       O  0.99427104  0.32746930  0.00001062    -1.44380
C1070       C  0.92070933  0.06013813  0.27268059     1.07170
C1071       C  0.74929959  0.28003539  0.26037923     1.07260
C1072       C  0.91353054  0.28413212  0.26662717     1.07200
C1073       C  0.72470192  0.08971590  0.27047349     1.07170
O1074       O  0.88259158  0.21843883  0.24797534    -0.82450
O1075       O  0.72705246  0.14620906  0.20699939    -0.82470
O1076       O  0.78988405  0.26484693  0.18255555    -0.82480
O1077       O  0.87822240  0.07583141  0.19507584    -0.82420
O1078       O  0.78267265  0.20913385  0.23842819    -0.82500
O1079       O  0.88408135  0.12903404  0.25146519    -0.82460
O1080       O  0.78975161  0.10234196  0.21785728    -0.82450
O1081       O  0.87880414  0.26790876  0.18465069    -0.82480
C1082       C  0.88690140  0.25744095  0.23269344     1.07240
C1083       C  0.74803126  0.11316444  0.22938967     1.07130
C1084       C  0.77759731  0.25042275  0.22691069     1.07270
C1085       C  0.89120838  0.08862400  0.23932497     1.07140
O1086       O  0.93138347  0.12323634  0.15047453    -0.82450
O1087       O  0.74240938  0.21166595  0.13798871    -0.82520
O1088       O  0.88500552  0.21596474  0.08495109    -0.82460
O1089       O  0.81281038  0.06041950  0.12625330    -0.82440
O1090       O  0.76889206  0.12307835  0.11531670    -0.82490
O1091       O  0.93450341  0.21214973  0.14825106    -0.82460
O1092       O  0.87562830  0.11603543  0.09464800    -0.82420
O1093       O  0.79560411  0.21747031  0.08156885    -0.82490
Co1094     Co  0.90468407  0.17098802  0.19939511     1.51530
Co1095     Co  0.78000880  0.16591207  0.18006952     1.51690
Co1096     Co  0.83758947  0.23808959  0.13357632     1.51570
Co1097     Co  0.83247428  0.11342182  0.15303712     1.51470
O1098       O  0.84340630  0.17682438  0.16650705    -1.44380
C1099       C  0.91690678  0.11086978  0.10618492     1.07170
C1100       C  0.75520431  0.22464281  0.09372552     1.07260
C1101       C  0.92402207  0.22025367  0.10021220     1.07200
C1102       C  0.77975161  0.08134669  0.10384278     1.07170
O1103       O  0.95476337  0.28619604  0.41447535    -0.82450
O1104       O  0.77753296  0.02491807  0.37350201    -0.82470
O1105       O  0.71474323  0.23989100  0.34934678    -0.82480
O1106       O  0.95942210  0.09519779  0.36154828    -0.82420
O1107       O  0.72209700  0.29564478  0.40512903    -0.82540
O1108       O  0.95362669  0.04199449  0.41794023    -0.82460
O1109       O  0.71482629  0.06871787  0.38461769    -0.82450
O1110       O  0.95869788  0.23662388  0.35127308    -0.82480
C1111       C  0.95060089  0.24713723  0.39930619     1.07240
C1112       C  0.75658029  0.05791398  0.39601021     1.07130
C1113       C  0.72712241  0.25434774  0.39364630     1.07270
C1114       C  0.94648170  0.08239433  0.40581612     1.07140
O1115       O  0.90651922  0.04795511  0.65038015    -0.82450
O1116       O  0.76209642  0.29266991  0.63813875    -0.82520
O1117       O  0.95287081  0.28801633  0.58527514    -0.82460
O1118       O  0.69172623  0.11075906  0.62614128    -0.82440
O1119       O  0.73549707  0.04802208  0.61513856    -0.82490
O1120       O  0.90318519  0.29189552  0.64831694    -0.82460
O1121       O  0.96238559  0.05520643  0.59473412    -0.82420
O1122       O  0.70887328  0.28680719  0.58177395    -0.82490
Co1123     Co  0.93295147  0.00004242  0.36595623     1.51530
Co1124     Co  0.72447588  0.33846278  0.68020733     1.51690
Co1125     Co  0.99992598  0.26640698  0.30015936     1.51570
Co1126     Co  0.00543473  0.05785399  0.65324879     1.51470
O1127       O  0.99402771  0.32774200  0.33292648    -1.44380
C1128       C  0.92107111  0.06027107  0.60609908     1.07170
C1129       C  0.74928415  0.27967306  0.59388112     1.07260
C1130       C  0.91379736  0.28381226  0.60031654     1.07200
C1131       C  0.72473357  0.08976951  0.60368426     1.07170
O1132       O  0.88289588  0.21822760  0.58127553    -0.82450
O1133       O  0.72723540  0.14611553  0.54006309    -0.82470
O1134       O  0.79009304  0.26476363  0.51612445    -0.82480
O1135       O  0.87853521  0.07575987  0.52838778    -0.82420
O1136       O  0.78285626  0.20890157  0.57176347    -0.82500
O1137       O  0.88442928  0.12904265  0.58462176    -0.82460
O1138       O  0.78993820  0.10232480  0.55123162    -0.82450
O1139       O  0.87906720  0.26786085  0.51817902    -0.82480
C1140       C  0.88717943  0.25726425  0.56618638     1.07240
C1141       C  0.74817610  0.11313777  0.56261252     1.07130
C1142       C  0.77773148  0.25020978  0.56038791     1.07270
C1143       C  0.89157939  0.08863440  0.57258538     1.07140
O1144       O  0.93161124  0.12323202  0.48349540    -0.82450
O1145       O  0.74263446  0.21168762  0.47126039    -0.82520
O1146       O  0.88507843  0.21604883  0.41825456    -0.82460
O1147       O  0.81294709  0.06034948  0.45961145    -0.82440
O1148       O  0.76919374  0.12308507  0.44843610    -0.82490
O1149       O  0.93471547  0.21222073  0.48135231    -0.82460
O1150       O  0.87572895  0.11594608  0.42788458    -0.82420
O1151       O  0.79587137  0.21755385  0.41496312    -0.82490
Co1152     Co  0.90497624  0.17094764  0.53252098     1.51530
Co1153     Co  0.78022971  0.16583119  0.51325763     1.51690
Co1154     Co  0.83779534  0.23811139  0.46703654     1.51570
Co1155     Co  0.83267809  0.11334393  0.48638732     1.51470
O1156       O  0.84364565  0.17677806  0.49978550    -1.44380
C1157       C  0.91703591  0.11083678  0.43926590     1.07170
C1158       C  0.75547921  0.22475105  0.42705787     1.07260
C1159       C  0.92410571  0.22038792  0.43335773     1.07200
C1160       C  0.77997963  0.08132193  0.43706438     1.07170
O1161       O  0.95475816  0.28581924  0.74831965    -0.82450
O1162       O  0.77732301  0.02496382  0.70685287    -0.82470
O1163       O  0.71459296  0.23953355  0.68282049    -0.82480
O1164       O  0.95955961  0.09543932  0.69525307    -0.82420
O1165       O  0.72177518  0.29531513  0.73860333    -0.82540
O1166       O  0.95376158  0.04215117  0.75150657    -0.82460
O1167       O  0.71464385  0.06881968  0.71783666    -0.82450
O1168       O  0.95888734  0.23619815  0.68516626    -0.82480
C1169       C  0.95063438  0.24675775  0.73315219     1.07240
C1170       C  0.75636850  0.05795644  0.72935312     1.07130
C1171       C  0.72690898  0.25402714  0.72712720     1.07270
C1172       C  0.94652256  0.08254606  0.73945363     1.07140
O1173       O  0.90627134  0.04777562  0.98397264    -0.82450
O1174       O  0.76177130  0.29284868  0.97134962    -0.82520
O1175       O  0.95278682  0.28808981  0.91844864    -0.82460
O1176       O  0.69152967  0.11058970  0.95969411    -0.82440
O1177       O  0.73538867  0.04790844  0.94874158    -0.82490
O1178       O  0.90321557  0.29201017  0.98166533    -0.82460
O1179       O  0.96206755  0.05495289  0.92820120    -0.82420
O1180       O  0.70858800  0.28684953  0.91496766    -0.82490
Co1181     Co  0.93311394  0.00025444  0.69947151     1.51530
Co1182     Co  0.72410594  0.33859050  0.01340020     1.51690
Co1183     Co  0.00015611  0.26600844  0.63411465     1.51570
Co1184     Co  0.00522830  0.05761620  0.98662006     1.51470
O1185       O  0.99426639  0.32729887  0.66695067    -1.44380
C1186       C  0.92076832  0.06008406  0.93966504     1.07170
C1187       C  0.74899243  0.27976127  0.92712475     1.07260
C1188       C  0.91374825  0.28383630  0.93365612     1.07200
C1189       C  0.72454871  0.08963125  0.93723892     1.07170
O1190       O  0.88268520  0.21820689  0.91495228    -0.82450
O1191       O  0.72698815  0.14604645  0.87369704    -0.82470
O1192       O  0.78991023  0.26467472  0.84951973    -0.82480
O1193       O  0.87825028  0.07565060  0.86197311    -0.82420
O1194       O  0.78256854  0.20892013  0.90529852    -0.82500
O1195       O  0.88406184  0.12887937  0.91833061    -0.82460
O1196       O  0.78967468  0.10217155  0.88467272    -0.82450
O1197       O  0.87888938  0.26771308  0.85168278    -0.82480
C1198       C  0.88704369  0.25720473  0.89970619     1.07240
C1199       C  0.74793834  0.11302040  0.89614960     1.07130
C1200       C  0.77747281  0.25020945  0.89378966     1.07270
C1201       C  0.89124143  0.08847932  0.90622038     1.07140
O1202       O  0.93139059  0.12307962  0.81729892    -0.82450
O1203       O  0.74242899  0.21154068  0.80481859    -0.82520
O1204       O  0.88501506  0.21575449  0.75192864    -0.82460
O1205       O  0.81275182  0.06029590  0.79298015    -0.82440
O1206       O  0.76892337  0.12300834  0.78204961    -0.82490
O1207       O  0.93454950  0.21197353  0.81515965    -0.82460
O1208       O  0.87563675  0.11591280  0.76147695    -0.82420
O1209       O  0.79569887  0.21731604  0.74851330    -0.82490
Co1210     Co  0.90471630  0.17079772  0.86629387     1.51530
Co1211     Co  0.77998159  0.16574970  0.84688900     1.51690
Co1212     Co  0.83764293  0.23791956  0.80056806     1.51570
Co1213     Co  0.83247214  0.11325473  0.81989608     1.51470
O1214       O  0.84341478  0.17665405  0.83345302    -1.44380
C1215       C  0.91693512  0.11083759  0.77294327     1.07170
C1216       C  0.75528975  0.22451069  0.76058641     1.07260
C1217       C  0.92403297  0.22006683  0.76712743     1.07200
C1218       C  0.77974894  0.08128748  0.77051564     1.07170
O1219       O  0.95525036  0.61949910  0.08142018    -0.82450
O1220       O  0.77702715  0.35837744  0.04029644    -0.82470
O1221       O  0.71443556  0.57310584  0.01619738    -0.82480
O1222       O  0.95938607  0.42849016  0.02840608    -0.82420
O1223       O  0.72153490  0.62902899  0.07180055    -0.82540
O1224       O  0.95337581  0.37534189  0.08483746    -0.82460
O1225       O  0.71433567  0.40224933  0.05111390    -0.82450
O1226       O  0.95900183  0.56996964  0.01819125    -0.82480
C1227       C  0.95085284  0.58050208  0.06620783     1.07240
C1228       C  0.75608103  0.39146792  0.06262743     1.07130
C1229       C  0.72674331  0.58772585  0.06043943     1.07270
C1230       C  0.94628642  0.41574143  0.07262078     1.07140
O1231       O  0.90608234  0.38128026  0.31671720    -0.82450
O1232       O  0.76220709  0.62601214  0.30504842    -0.82520
O1233       O  0.95270877  0.62183025  0.25175735    -0.82460
O1234       O  0.69181498  0.44433759  0.29313597    -0.82440
O1235       O  0.73560506  0.38163532  0.28192730    -0.82490
O1236       O  0.90314852  0.62566580  0.31496280    -0.82460
O1237       O  0.96190617  0.38850369  0.26099801    -0.82420
O1238       O  0.70890647  0.62014121  0.24881637    -0.82490
Co1239     Co  0.93293174  0.33328414  0.03278452     1.51530
Co1240     Co  0.72464140  0.67187154  0.34701858     1.51690
Co1241     Co  0.00024615  0.59976086  0.96707055     1.51570
Co1242     Co  0.00497819  0.39115883  0.31947013     1.51470
O1243       O  0.99443607  0.66108736  0.99987931    -1.44380
C1244       C  0.92061231  0.39364305  0.27244820     1.07170
C1245       C  0.74933260  0.61304199  0.26082164     1.07260
C1246       C  0.91368691  0.61752414  0.26693899     1.07200
C1247       C  0.72475643  0.42337754  0.27051783     1.07170
O1248       O  0.88277772  0.55183641  0.24801069    -0.82450
O1249       O  0.72705027  0.47977090  0.20689324    -0.82470
O1250       O  0.78997894  0.59831085  0.18295152    -0.82480
O1251       O  0.87814850  0.40932549  0.19480390    -0.82420
O1252       O  0.78289022  0.54236219  0.23851079    -0.82500
O1253       O  0.88404592  0.46251445  0.25119377    -0.82460
O1254       O  0.78974449  0.43591623  0.21773305    -0.82450
O1255       O  0.87893850  0.60146355  0.18488890    -0.82480
C1256       C  0.88706296  0.59088494  0.23289251     1.07240
C1257       C  0.74804165  0.44676722  0.22933219     1.07130
C1258       C  0.77773455  0.58367909  0.22722429     1.07270
C1259       C  0.89114951  0.42211218  0.23905105     1.07140
O1260       O  0.93133767  0.45673602  0.15017288    -0.82450
O1261       O  0.74246587  0.54531587  0.13811419    -0.82520
O1262       O  0.88499234  0.54986405  0.08494231    -0.82460
O1263       O  0.81259670  0.39403878  0.12601626    -0.82440
O1264       O  0.76876052  0.45672218  0.11507359    -0.82490
O1265       O  0.93458247  0.54569386  0.14815007    -0.82460
O1266       O  0.87553198  0.44954928  0.09440111    -0.82420
O1267       O  0.79565079  0.55128700  0.08172081    -0.82490
Co1268     Co  0.90473628  0.50446699  0.19921738     1.51530
Co1269     Co  0.78004799  0.49940516  0.17995027     1.51690
Co1270     Co  0.83764465  0.57177478  0.13376845     1.51570
Co1271     Co  0.83240149  0.44698658  0.15283398     1.51470
O1272       O  0.84345966  0.51036902  0.16635878    -1.44380
C1273       C  0.91681467  0.44431532  0.10592378     1.07170
C1274       C  0.75525049  0.55835778  0.09388346     1.07260
C1275       C  0.92406201  0.55395073  0.10015068     1.07200
C1276       C  0.77953181  0.41496515  0.10362006     1.07170
O1277       O  0.95504703  0.61955175  0.41480436    -0.82450
O1278       O  0.77763612  0.35859355  0.37355736    -0.82470
O1279       O  0.71473455  0.57297438  0.34997529    -0.82480
O1280       O  0.95917299  0.42874784  0.36146390    -0.82420
O1281       O  0.72203938  0.62887175  0.40556628    -0.82540
O1282       O  0.95331497  0.37551467  0.41780752    -0.82460
O1283       O  0.71491142  0.40234527  0.38475225    -0.82450
O1284       O  0.95883205  0.56998675  0.35160793    -0.82480
C1285       C  0.95078415  0.58051851  0.39964686     1.07240
C1286       C  0.75667513  0.39155049  0.39614099     1.07130
C1287       C  0.72712005  0.58756039  0.39420946     1.07270
C1288       C  0.94626144  0.41593820  0.40574323     1.07140
O1289       O  0.90634198  0.38087574  0.65036428    -0.82450
O1290       O  0.76194755  0.62604547  0.63848013    -0.82520
O1291       O  0.95288519  0.62205808  0.58552089    -0.82460
O1292       O  0.69179299  0.44392559  0.62640697    -0.82440
O1293       O  0.73565890  0.38125311  0.61545284    -0.82490
O1294       O  0.90330961  0.62570982  0.64867063    -0.82460
O1295       O  0.96235595  0.38803954  0.59492001    -0.82420
O1296       O  0.70880687  0.61997380  0.58204600    -0.82490
Co1297     Co  0.93272979  0.33356381  0.36574226     1.51530
Co1298     Co  0.72430511  0.67188013  0.68034107     1.51690
Co1299     Co  0.00005770  0.59975215  0.30046233     1.51570
Co1300     Co  0.00526507  0.39071601  0.65354280     1.51470
O1301       O  0.99424622  0.66105181  0.33327185    -1.44380
C1302       C  0.92103822  0.39327022  0.60618642     1.07170
C1303       C  0.74921337  0.61294680  0.59425623     1.07260
C1304       C  0.91389169  0.61759326  0.60066308     1.07200
C1305       C  0.72487122  0.42300166  0.60401524     1.07170
O1306       O  0.88345535  0.55166016  0.58177175    -0.82450
O1307       O  0.72742334  0.47947836  0.54056692    -0.82470
O1308       O  0.79023705  0.59815616  0.51668848    -0.82480
O1309       O  0.87866900  0.40920866  0.52849201    -0.82420
O1310       O  0.78303464  0.54225922  0.57230627    -0.82500
O1311       O  0.88486732  0.46232816  0.58491580    -0.82460
O1312       O  0.79011839  0.43567054  0.55160138    -0.82450
O1313       O  0.87919377  0.60133282  0.51865677    -0.82480
C1314       C  0.88744614  0.59076656  0.56664171     1.07240
C1315       C  0.74835492  0.44644930  0.56302151     1.07130
C1316       C  0.77781771  0.58355806  0.56089985     1.07270
C1317       C  0.89177577  0.42191607  0.57273257     1.07140
O1318       O  0.93170892  0.45669409  0.48357740    -0.82450
O1319       O  0.74276622  0.54509524  0.47188811    -0.82520
O1320       O  0.88518961  0.54959324  0.41870687    -0.82460
O1321       O  0.81305968  0.39391470  0.45977205    -0.82440
O1322       O  0.76928463  0.45662963  0.44882041    -0.82490
O1323       O  0.93490974  0.54569838  0.48171483    -0.82460
O1324       O  0.87568036  0.44968493  0.42810292    -0.82420
O1325       O  0.79596702  0.55100078  0.41553975    -0.82490
Co1326     Co  0.90527427  0.50435726  0.53283389     1.51530
Co1327     Co  0.78040138  0.49924252  0.51377262     1.51690
Co1328     Co  0.83792223  0.57157634  0.46756687     1.51570
Co1329     Co  0.83277258  0.44688487  0.48670649     1.51470
O1330       O  0.84381711  0.51026228  0.50032126    -1.44380
C1331       C  0.91700108  0.44443769  0.43934576     1.07170
C1332       C  0.75556864  0.55812025  0.42765957     1.07260
C1333       C  0.92425153  0.55386289  0.43374376     1.07200
C1334       C  0.78007511  0.41490295  0.43728917     1.07170
O1335       O  0.95501475  0.61951788  0.74853738    -0.82450
O1336       O  0.77740914  0.35820739  0.70720132    -0.82470
O1337       O  0.71443629  0.57293501  0.68317700    -0.82480
O1338       O  0.95935112  0.42830317  0.69538152    -0.82420
O1339       O  0.72162405  0.62881255  0.73882878    -0.82540
O1340       O  0.95322539  0.37510696  0.75168961    -0.82460
O1341       O  0.71469147  0.40202809  0.71809704    -0.82450
O1342       O  0.95902717  0.57001637  0.68523845    -0.82480
C1343       C  0.95080768  0.58048891  0.73325790     1.07240
C1344       C  0.75642245  0.39123324  0.72962581     1.07130
C1345       C  0.72682704  0.58751357  0.72740490     1.07270
C1346       C  0.94622008  0.41551970  0.73956695     1.07140
O1347       O  0.90627726  0.38096142  0.98375323    -0.82450
O1348       O  0.76185408  0.62620440  0.97140467    -0.82520
O1349       O  0.95286098  0.62182441  0.91840402    -0.82460
O1350       O  0.69121387  0.44400230  0.95940038    -0.82440
O1351       O  0.73521477  0.38138017  0.94862916    -0.82490
O1352       O  0.90333326  0.62569074  0.98165644    -0.82460
O1353       O  0.96212289  0.38820172  0.92806216    -0.82420
O1354       O  0.70868725  0.62009439  0.91502089    -0.82490
Co1355     Co  0.93283798  0.33315430  0.69951143     1.51530
Co1356     Co  0.72422894  0.67203562  0.01327696     1.51690
Co1357     Co  0.00023402  0.59988932  0.63416566     1.51570
Co1358     Co  0.00521809  0.39087949  0.98651072     1.51470
O1359       O  0.99447012  0.66110631  0.66711953    -1.44380
C1360       C  0.92082685  0.39336669  0.93951857     1.07170
C1361       C  0.74909484  0.61307707  0.92720625     1.07260
C1362       C  0.91385824  0.61747987  0.93364988     1.07200
C1363       C  0.72436603  0.42310247  0.93712535     1.07170
O1364       O  0.88305528  0.55167453  0.91499258    -0.82450
O1365       O  0.72706807  0.47959886  0.87373861    -0.82470
O1366       O  0.79008387  0.59813538  0.84967325    -0.82480
O1367       O  0.87824363  0.40909685  0.86199566    -0.82420
O1368       O  0.78279014  0.54232219  0.90538864    -0.82500
O1369       O  0.88434556  0.46230438  0.91831479    -0.82460
O1370       O  0.78969053  0.43570653  0.88489525    -0.82450
O1371       O  0.87904192  0.60121528  0.85174016    -0.82480
C1372       C  0.88725165  0.59071394  0.89974702     1.07240
C1373       C  0.74792258  0.44654671  0.89622163     1.07130
C1374       C  0.77764607  0.58360996  0.89390698     1.07270
C1375       C  0.89137086  0.42189086  0.90617661     1.07140
O1376       O  0.93144292  0.45647468  0.81719077    -0.82450
O1377       O  0.74255838  0.54503393  0.80500988    -0.82520
O1378       O  0.88516163  0.54940866  0.75194637    -0.82460
O1379       O  0.81271975  0.39372581  0.79330743    -0.82440
O1380       O  0.76899601  0.45645147  0.78211549    -0.82490
O1381       O  0.93474291  0.54546478  0.81513790    -0.82460
O1382       O  0.87553157  0.44928998  0.76158036    -0.82420
O1383       O  0.79575430  0.55095192  0.74862352    -0.82490
Co1384     Co  0.90492990  0.50424190  0.86624246     1.51530
Co1385     Co  0.78012185  0.49920782  0.84696062     1.51690
Co1386     Co  0.83777690  0.57145722  0.80066109     1.51570
Co1387     Co  0.83245971  0.44673196  0.82006413     1.51470
O1388       O  0.84356005  0.51014025  0.83349843    -1.44380
C1389       C  0.91683310  0.44407503  0.77297606     1.07170
C1390       C  0.75534982  0.55807756  0.76079100     1.07260
C1391       C  0.92418833  0.55371490  0.76715238     1.07200
C1392       C  0.77976781  0.41468271  0.77073311     1.07170
O1393       O  0.95498126  0.95265365  0.08164473    -0.82450
O1394       O  0.77724922  0.69169527  0.04007913    -0.82470
O1395       O  0.71444266  0.90625303  0.01619919    -0.82480
O1396       O  0.95963402  0.76208560  0.02856674    -0.82420
O1397       O  0.72169705  0.96202199  0.07198770    -0.82540
O1398       O  0.95380658  0.70881218  0.08484195    -0.82460
O1399       O  0.71457234  0.73550953  0.05119453    -0.82450
O1400       O  0.95883782  0.90313449  0.01837987    -0.82480
C1401       C  0.95068865  0.91363924  0.06640371     1.07240
C1402       C  0.75632092  0.72467287  0.06262085     1.07130
C1403       C  0.72681502  0.92073530  0.06048632     1.07270
C1404       C  0.94661173  0.74921850  0.07277210     1.07140
O1405       O  0.90629861  0.71462242  0.31712051    -0.82450
O1406       O  0.76206197  0.95938305  0.30471749    -0.82520
O1407       O  0.95264882  0.95482865  0.25162920    -0.82460
O1408       O  0.69186495  0.77722155  0.29316989    -0.82440
O1409       O  0.73566133  0.71452850  0.28207805    -0.82490
O1410       O  0.90311449  0.95880322  0.31488330    -0.82460
O1411       O  0.96209062  0.72182936  0.26135328    -0.82420
O1412       O  0.70878647  0.95353687  0.24844321    -0.82490
Co1413     Co  0.93316320  0.66690334  0.03277638     1.51530
Co1414     Co  0.72451469  0.00521119  0.34674085     1.51690
Co1415     Co  0.00007953  0.93293755  0.96729841     1.51570
Co1416     Co  0.00522506  0.72444826  0.31978131     1.51470
O1417       O  0.99425124  0.99422514  0.00016670    -1.44380
C1418       C  0.92079545  0.72693729  0.27281711     1.07170
C1419       C  0.74919453  0.94636619  0.26051048     1.07260
C1420       C  0.91361413  0.95062464  0.26686091     1.07200
C1421       C  0.72482042  0.75625877  0.27060193     1.07170
O1422       O  0.88255156  0.88501589  0.24811145    -0.82450
O1423       O  0.72711291  0.81268956  0.20703425    -0.82470
O1424       O  0.78986665  0.93135399  0.18274703    -0.82480
O1425       O  0.87833891  0.74243727  0.19509498    -0.82420
O1426       O  0.78272740  0.87556493  0.23853571    -0.82500
O1427       O  0.88402758  0.79568707  0.25146049    -0.82460
O1428       O  0.78982453  0.76883552  0.21782845    -0.82450
O1429       O  0.87879053  0.93453719  0.18487004    -0.82480
C1430       C  0.88689823  0.92402388  0.23290028     1.07240
C1431       C  0.74811308  0.77966162  0.22942635     1.07130
C1432       C  0.77757497  0.91685439  0.22705926     1.07270
C1433       C  0.89126535  0.75529089  0.23935670     1.07140
O1434       O  0.93145718  0.78992186  0.15050184    -0.82450
O1435       O  0.74244224  0.87820420  0.13810491    -0.82520
O1436       O  0.88500787  0.88267837  0.08508520    -0.82460
O1437       O  0.81284455  0.72703693  0.12607662    -0.82440
O1438       O  0.76893181  0.78971455  0.11529187    -0.82490
O1439       O  0.93451263  0.87884863  0.14837222    -0.82460
O1440       O  0.87573799  0.78267284  0.09463737    -0.82420
O1441       O  0.79565101  0.88406568  0.08172097    -0.82490
Co1442     Co  0.90469521  0.83763076  0.19946796     1.51530
Co1443     Co  0.78006065  0.83243228  0.18011705     1.51690
Co1444     Co  0.83759364  0.90471021  0.13374434     1.51570
Co1445     Co  0.83255431  0.77999427  0.15301062     1.51470
O1446       O  0.84344583  0.84340815  0.16655466    -1.44380
C1447       C  0.91702281  0.77758000  0.10617521     1.07170
C1448       C  0.75524906  0.89121074  0.09386291     1.07260
C1449       C  0.92401954  0.88697972  0.10033994     1.07200
C1450       C  0.77977174  0.74800774  0.10371683     1.07170
O1451       O  0.95504803  0.95269644  0.41467543    -0.82450
O1452       O  0.77765930  0.69162157  0.37375640    -0.82470
O1453       O  0.71461997  0.90627409  0.34953762    -0.82480
O1454       O  0.95945650  0.76206014  0.36184006    -0.82420
O1455       O  0.72193053  0.96210484  0.40521477    -0.82540
O1456       O  0.95361074  0.70881625  0.41816098    -0.82460
O1457       O  0.71492653  0.73537621  0.38487813    -0.82450
O1458       O  0.95880524  0.90309759  0.35152279    -0.82480
C1459       C  0.95074383  0.91365939  0.39954923     1.07240
C1460       C  0.75668587  0.72459329  0.39628380     1.07130
C1461       C  0.72701621  0.92079923  0.39380016     1.07270
C1462       C  0.94649951  0.74923007  0.40609656     1.07140
O1463       O  0.90650747  0.71469492  0.65076783    -0.82450
O1464       O  0.76192748  0.95949123  0.63802162    -0.82520
O1465       O  0.95287866  0.95506634  0.58518631    -0.82460
O1466       O  0.69164941  0.77725956  0.62631981    -0.82440
O1467       O  0.73549850  0.71456902  0.61545831    -0.82490
O1468       O  0.90329732  0.95901484  0.64835899    -0.82460
O1469       O  0.96235802  0.72181912  0.59507118    -0.82420
O1470       O  0.70874668  0.95351299  0.58162489    -0.82490
Co1471     Co  0.93296477  0.66689717  0.36610763     1.51530
Co1472     Co  0.72432935  0.00530986  0.67996052     1.51690
Co1473     Co  0.00003357  0.93283250  0.30034598     1.51570
Co1474     Co  0.00545974  0.72449337  0.65352114     1.51470
O1475       O  0.99421490  0.99419456  0.33305167    -1.44380
C1476       C  0.92105930  0.72700091  0.60648381     1.07170
C1477       C  0.74914756  0.94643105  0.59379754     1.07260
C1478       C  0.91383693  0.95082922  0.60034947     1.07200
C1479       C  0.72471438  0.75630742  0.60394723     1.07170
O1480       O  0.88295726  0.88512870  0.58157469    -0.82450
O1481       O  0.72725737  0.81272745  0.54039772    -0.82470
O1482       O  0.79004573  0.93145205  0.51619986    -0.82480
O1483       O  0.87858056  0.74255579  0.52876822    -0.82420
O1484       O  0.78279337  0.87566314  0.57196473    -0.82500
O1485       O  0.88448765  0.79583889  0.58502683    -0.82460
O1486       O  0.78996798  0.76897044  0.55156859    -0.82450
O1487       O  0.87901304  0.93465376  0.51833477    -0.82480
C1488       C  0.88719045  0.92415506  0.56636188     1.07240
C1489       C  0.74819079  0.77973124  0.56292252     1.07130
C1490       C  0.77764312  0.91694501  0.56045948     1.07270
C1491       C  0.89160614  0.75542025  0.57298053     1.07140
O1492       O  0.93163087  0.79000372  0.48386026    -0.82450
O1493       O  0.74260472  0.87827148  0.47148677    -0.82520
O1494       O  0.88512484  0.88271296  0.41851368    -0.82460
O1495       O  0.81304741  0.72705232  0.45992166    -0.82440
O1496       O  0.76923561  0.78974076  0.44877146    -0.82490
O1497       O  0.93471884  0.87897131  0.48166840    -0.82460
O1498       O  0.87575403  0.78275208  0.42823816    -0.82420
O1499       O  0.79585016  0.88415142  0.41518009    -0.82490
Co1500     Co  0.90499355  0.83774814  0.53287501     1.51530
Co1501     Co  0.78022913  0.83251072  0.51357034     1.51690
Co1502     Co  0.83778088  0.90479219  0.46722810     1.51570
Co1503     Co  0.83271129  0.78007642  0.48673692     1.51470
O1504       O  0.84364034  0.84351994  0.50013758    -1.44380
C1505       C  0.91706233  0.77764903  0.43960303     1.07170
C1506       C  0.75543777  0.89129132  0.42725800     1.07260
C1507       C  0.92415326  0.88704147  0.43364402     1.07200
C1508       C  0.78006443  0.74799795  0.43737069     1.07170
O1509       O  0.95509404  0.95291699  0.74826095    -0.82450
O1510       O  0.77729226  0.69157759  0.70718758    -0.82470
O1511       O  0.71447427  0.90637415  0.68275354    -0.82480
O1512       O  0.95967169  0.76209907  0.69551386    -0.82420
O1513       O  0.72162004  0.96223384  0.73842991    -0.82540
O1514       O  0.95366984  0.70889947  0.75187684    -0.82460
O1515       O  0.71462794  0.73547391  0.71805911    -0.82450
O1516       O  0.95897180  0.90332250  0.68511091    -0.82480
C1517       C  0.95078937  0.91388748  0.73311306     1.07240
C1518       C  0.75636992  0.72465955  0.72954687     1.07130
C1519       C  0.72681252  0.92093588  0.72701992     1.07270
C1520       C  0.94658564  0.74930281  0.73972172     1.07140
O1521       O  0.90646125  0.71466139  0.98382525    -0.82450
O1522       O  0.76188727  0.95940065  0.97152995    -0.82520
O1523       O  0.95268789  0.95501459  0.91860819    -0.82460
O1524       O  0.69156227  0.77744309  0.95953287    -0.82440
O1525       O  0.73534233  0.71473079  0.94842121    -0.82490
O1526       O  0.90313664  0.95886412  0.98183826    -0.82460
O1527       O  0.96223983  0.72199701  0.92806991    -0.82420
O1528       O  0.70864358  0.95359405  0.91519188    -0.82490
Co1529     Co  0.93308813  0.66694910  0.69981779     1.51530
Co1530     Co  0.72431170  0.00516967  0.01357965     1.51690
Co1531     Co  0.00022856  0.93309088  0.63396973     1.51570
Co1532     Co  0.00541173  0.72451499  0.98648950     1.51470
O1533       O  0.99442671  0.99442502  0.66669451    -1.44380
C1534       C  0.92094353  0.72708673  0.93955801     1.07170
C1535       C  0.74905550  0.94645684  0.92727568     1.07260
C1536       C  0.91364503  0.95078072  0.93380139     1.07200
C1537       C  0.72456289  0.75648942  0.93702894     1.07170
O1538       O  0.88256118  0.88522290  0.91492677    -0.82450
O1539       O  0.72704831  0.81292497  0.87350939    -0.82470
O1540       O  0.78984143  0.93159491  0.84954783    -0.82480
O1541       O  0.87835516  0.74266631  0.86193600    -0.82420
O1542       O  0.78264822  0.87572730  0.90520175    -0.82500
O1543       O  0.88417440  0.79590051  0.91828373    -0.82460
O1544       O  0.78975530  0.76913247  0.88461344    -0.82450
O1545       O  0.87881141  0.93479952  0.85175844    -0.82480
C1546       C  0.88692548  0.92423641  0.89977379     1.07240
C1547       C  0.74799291  0.77991988  0.89600133     1.07130
C1548       C  0.77748812  0.91702472  0.89379874     1.07270
C1549       C  0.89137794  0.75550071  0.90616141     1.07140
O1550       O  0.93150429  0.79019183  0.81730747    -0.82450
O1551       O  0.74246172  0.87845336  0.80469631    -0.82520
O1552       O  0.88504334  0.88304991  0.75187164    -0.82460
O1553       O  0.81287096  0.72723863  0.79298876    -0.82440
O1554       O  0.76900921  0.78989848  0.78190624    -0.82490
O1555       O  0.93455028  0.87914928  0.81514778    -0.82460
O1556       O  0.87575742  0.78286769  0.76149874    -0.82420
O1557       O  0.79571844  0.88445411  0.74841943    -0.82490
Co1558     Co  0.90474106  0.83788893  0.86625311     1.51530
Co1559     Co  0.78005114  0.83265384  0.84672978     1.51690
Co1560     Co  0.83761987  0.90501445  0.80056137     1.51570
Co1561     Co  0.83256205  0.78023051  0.81985260     1.51470
O1562       O  0.84347126  0.84366188  0.83331754    -1.44380
C1563       C  0.91704081  0.77776997  0.77303486     1.07170
C1564       C  0.75529179  0.89150644  0.76048513     1.07260
C1565       C  0.92406813  0.88729437  0.76710937     1.07200
C1566       C  0.77982135  0.74814356  0.77052341     1.07170
loop_ 
_geom_bond_atom_site_label_1 
_geom_bond_atom_site_label_2 
_geom_bond_distance 
_geom_bond_site_symmetry_2 
_ccdc_geom_bond_type 
O1            C9   1.252       .  A
O1         Co195   1.958       .  S
O2           C10   1.265       .  A
O2         Co486   1.874       .  S
O3           C11   1.273       .  A
O3        Co1067   2.013   1_554  S
O4           C12   1.261       .  A
O4         Co140   2.011   1_554  S
O5           C11   1.271       .  A
O5         Co138   1.976       .  S
O6           C12   1.254       .  A
O6          Co21   1.963       .  S
O7           C10   1.302       .  A
O7        Co1184   2.133   1_554  S
O8            C9   1.278       .  A
O8          Co23   2.053   1_554  S
C9           C57   1.462       .  S
C10          C58   1.471       .  S
C11          C56   1.451       .  S
C12          C55   1.452       .  S
O13          C26   1.273       .  A
O13         Co79   2.013       .  S
O14          C27   1.261       .  A
O14         Co22   2.011       .  S
O15          C28   1.252       .  A
O15         Co81   1.959       .  S
O16          C29   1.265       .  A
O16       Co1068   1.874       .  S
O17          C29   1.302       .  A
O17        Co370   2.133       .  S
O18          C28   1.278       .  A
O18        Co253   2.053       .  S
O19          C26   1.271       .  A
O19         Co24   1.976       .  S
O20          C27   1.254       .  A
O20       Co1125   1.963   1_455  S
Co21        O349   1.959   1_545  S
Co21        O129   2.013   1_554  S
Co21        O482   2.052   1_544  S
Co21        O373   2.017   1_545  S
Co22        O234   1.874       .  S
Co22         O63   1.977       .  S
Co22        O191   2.132       .  S
Co22       O1127   1.991   1_455  S
Co23        O525   2.013   1_556  S
Co23        O131   1.958       .  S
Co23        O658   1.963       .  S
Co23         O25   2.016   1_556  S
Co24         O62   2.011       .  S
Co24        O587   2.132       .  S
Co24        O538   1.874       .  S
Co24        O431   1.991   1_545  S
O25        Co195   2.017       .  S
O25        Co660   1.992       .  S
O25        Co314   1.991   1_554  S
C26          C41   1.451       .  S
C27          C40   1.452       .  S
C28          C38   1.462       .  S
C29          C39   1.471       .  S
O30          C38   1.252       .  A
O30         Co50   1.959       .  S
O31          C39   1.265       .  A
O31         Co51   1.874       .  S
O32          C40   1.273       .  A
O32         Co52   2.014       .  S
O33          C41   1.260       .  A
O33         Co53   2.010       .  S
O34          C40   1.271       .  A
O34         Co51   1.977       .  S
O35          C41   1.254       .  A
O35         Co50   1.963       .  S
O36          C39   1.302       .  A
O36         Co53   2.133       .  S
O37          C38   1.278       .  A
O37         Co52   2.052       .  S
O42          C55   1.273       .  A
O42         Co50   2.013       .  S
O43          C56   1.260       .  A
O43         Co51   2.010       .  S
O44          C57   1.252       .  A
O44         Co52   1.959       .  S
O45          C58   1.265       .  A
O45         Co53   1.874       .  S
O46          C58   1.302       .  A
O46         Co51   2.133       .  S
O47          C57   1.278       .  A
O47         Co50   2.052       .  S
O48          C55   1.271       .  A
O48         Co53   1.977       .  S
O49          C56   1.254       .  A
O49         Co52   1.963       .  S
Co50         O54   2.017       .  S
Co51         O54   1.991       .  S
Co52         O54   2.017       .  S
Co53         O54   1.991       .  S
O59          C67   1.252       .  A
O59        Co253   1.958       .  S
O60          C68   1.265       .  A
O60        Co370   1.874       .  S
O61          C69   1.273       .  A
O61       Co1125   2.013   1_455  S
O62          C70   1.261       .  A
O63          C69   1.271       .  A
O64          C70   1.254       .  A
O64         Co79   1.963       .  S
O65          C68   1.302       .  A
O65       Co1068   2.132       .  S
O66          C67   1.279       .  A
O66         Co81   2.053       .  S
C67         C115   1.462       .  S
C68         C116   1.471       .  S
C69         C114   1.452       .  S
C70         C113   1.452       .  S
O71          C84   1.273       .  A
O71        Co137   2.014       .  S
O72          C85   1.261       .  A
O72         Co80   2.012       .  S
O73          C86   1.252       .  A
O73        Co139   1.959       .  S
O74          C87   1.265       .  A
O74       Co1126   1.875       .  S
O75          C87   1.302       .  A
O75        Co428   2.132       .  S
O76          C86   1.279       .  A
O76        Co311   2.052       .  S
O77          C84   1.271       .  A
O77         Co82   1.977       .  S
O78          C85   1.253       .  A
O78       Co1183   1.962       .  S
Co79        O407   1.959   1_545  S
Co79        O366   2.052   1_545  S
Co79        O431   2.017   1_545  S
Co80        O292   1.875       .  S
Co80        O121   1.976       .  S
Co80        O249   2.132       .  S
Co80       O1185   1.992   1_455  S
Co81        O583   2.013       .  S
Co81        O542   1.964       .  S
Co81         O83   2.017       .  S
Co82        O120   2.013       .  S
Co82        O645   2.132       .  S
Co82        O596   1.875       .  S
Co82        O489   1.992   1_545  S
O83        Co253   2.016       .  S
O83        Co544   1.991       .  S
O83        Co198   1.992       .  S
C84          C99   1.452       .  S
C85          C98   1.452       .  S
C86          C96   1.462       .  S
C87          C97   1.471       .  S
O88          C96   1.251       .  A
O88        Co108   1.958       .  S
O89          C97   1.265       .  A
O89        Co109   1.875       .  S
O90          C98   1.273       .  A
O90        Co110   2.013       .  S
O91          C99   1.261       .  A
O91        Co111   2.012       .  S
O92          C98   1.271       .  A
O92        Co109   1.977       .  S
O93          C99   1.253       .  A
O93        Co108   1.963       .  S
O94          C97   1.302       .  A
O94        Co111   2.132       .  S
O95          C96   1.278       .  A
O95        Co110   2.053       .  S
O100        C113   1.273       .  A
O100       Co108   2.013       .  S
O101        C114   1.261       .  A
O101       Co109   2.012       .  S
O102        C115   1.252       .  A
O102       Co110   1.959       .  S
O103        C116   1.265       .  A
O103       Co111   1.874       .  S
O104        C116   1.302       .  A
O104       Co109   2.132       .  S
O105        C115   1.279       .  A
O105       Co108   2.053       .  S
O106        C113   1.271       .  A
O106       Co111   1.977       .  S
O107        C114   1.253       .  A
O107       Co110   1.963       .  S
Co108       O112   2.016       .  S
Co109       O112   1.991       .  S
Co110       O112   2.017       .  S
Co111       O112   1.992       .  S
O117        C125   1.252       .  A
O117       Co311   1.959       .  S
O118        C126   1.265       .  A
O118       Co428   1.875       .  S
O119        C127   1.273       .  A
O119      Co1183   2.014       .  S
O120        C128   1.261       .  A
O121        C127   1.271       .  A
O122        C128   1.253       .  A
O122       Co137   1.962       .  S
O123        C126   1.302       .  A
O123      Co1126   2.132       .  S
O124        C125   1.278       .  A
O124       Co139   2.052       .  S
C125        C173   1.462       .  S
C126        C174   1.471       .  S
C127        C172   1.452       .  S
C128        C171   1.452       .  S
O129        C142   1.273       .  A
O130        C143   1.261       .  A
O130       Co138   2.011   1_556  S
O131        C144   1.252       .  A
O132        C145   1.265       .  A
O132      Co1184   1.874       .  S
O133        C145   1.302       .  A
O133       Co486   2.132   1_556  S
O134        C144   1.279       .  A
O134       Co195   2.053   1_556  S
O135        C142   1.271       .  A
O135       Co140   1.977       .  S
O136        C143   1.254       .  A
O136      Co1067   1.963       .  S
Co137       O465   1.958   1_545  S
Co137       O424   2.053   1_545  S
Co137       O489   2.016   1_545  S
Co138       O176   1.874       .  S
Co138       O307   2.132   1_554  S
Co138      O1069   1.991   1_455  S
Co139       O641   2.014       .  S
Co139       O600   1.963       .  S
Co139       O141   2.017       .  S
Co140       O529   2.132   1_556  S
Co140       O654   1.874       .  S
Co140       O373   1.991   1_546  S
O141       Co311   2.016       .  S
O141       Co602   1.991       .  S
O141       Co256   1.991       .  S
C142        C157   1.452       .  S
C143        C156   1.452       .  S
C144        C154   1.462       .  S
C145        C155   1.471       .  S
O146        C154   1.252       .  A
O146       Co166   1.958       .  S
O147        C155   1.265       .  A
O147       Co167   1.874       .  S
O148        C156   1.273       .  A
O148       Co168   2.013       .  S
O149        C157   1.261       .  A
O149       Co169   2.012       .  S
O150        C156   1.271       .  A
O150       Co167   1.976       .  S
O151        C157   1.253       .  A
O151       Co166   1.963       .  S
O152        C155   1.302       .  A
O152       Co169   2.133       .  S
O153        C154   1.279       .  A
O153       Co168   2.053       .  S
O158        C171   1.273       .  A
O158       Co166   2.013       .  S
O159        C172   1.261       .  A
O159       Co167   2.011       .  S
O160        C173   1.252       .  A
O160       Co168   1.958       .  S
O161        C174   1.265       .  A
O161       Co169   1.875       .  S
O162        C174   1.302       .  A
O162       Co167   2.132       .  S
O163        C173   1.278       .  A
O163       Co166   2.052       .  S
O164        C171   1.271       .  A
O164       Co169   1.977       .  S
O165        C172   1.253       .  A
O165       Co168   1.963       .  S
Co166       O170   2.017       .  S
Co167       O170   1.991       .  S
Co168       O170   2.016       .  S
Co169       O170   1.992       .  S
O175        C183   1.252       .  A
O175       Co369   1.959       .  S
O176        C184   1.265       .  A
O177        C185   1.273       .  A
O177      Co1241   2.013   1_554  S
O178        C186   1.261       .  A
O178       Co314   2.012   1_554  S
O179        C185   1.271       .  A
O179       Co312   1.976       .  S
O180        C186   1.254       .  A
O180       Co195   1.964       .  S
O181        C184   1.302       .  A
O181      Co1358   2.132   1_554  S
O182        C183   1.278       .  A
O182       Co197   2.053   1_554  S
C183        C231   1.462       .  S
C184        C232   1.470       .  S
C185        C230   1.451       .  S
C186        C229   1.453       .  S
O187        C200   1.273       .  A
O187       Co253   2.013       .  S
O188        C201   1.261       .  A
O188       Co196   2.012       .  S
O189        C202   1.252       .  A
O189       Co255   1.959       .  S
O190        C203   1.265       .  A
O190      Co1242   1.874       .  S
O191        C203   1.302       .  A
O192        C202   1.278       .  A
O192       Co427   2.052       .  S
O193        C200   1.271       .  A
O193       Co198   1.976       .  S
O194        C201   1.253       .  A
O194      Co1299   1.963       .  S
Co195       O303   2.013   1_554  S
Co196       O408   1.874       .  S
Co196       O237   1.977       .  S
Co196       O365   2.132       .  S
Co196      O1301   1.991   1_455  S
Co197       O699   2.013   1_556  S
Co197       O305   1.958       .  S
Co197       O832   1.962       .  S
Co197       O199   2.016   1_556  S
Co198       O236   2.012       .  S
Co198       O761   2.132       .  S
Co198       O712   1.875       .  S
O199       Co369   2.017       .  S
O199       Co834   1.992       .  S
O199       Co488   1.992   1_554  S
C200        C215   1.451       .  S
C201        C214   1.452       .  S
C202        C212   1.462       .  S
C203        C213   1.470       .  S
O204        C212   1.252       .  A
O204       Co224   1.958       .  S
O205        C213   1.265       .  A
O205       Co225   1.874       .  S
O206        C214   1.273       .  A
O206       Co226   2.013       .  S
O207        C215   1.261       .  A
O207       Co227   2.011       .  S
O208        C214   1.271       .  A
O208       Co225   1.977       .  S
O209        C215   1.253       .  A
O209       Co224   1.963       .  S
O210        C213   1.302       .  A
O210       Co227   2.132       .  S
O211        C212   1.278       .  A
O211       Co226   2.053       .  S
O216        C229   1.273       .  A
O216       Co224   2.014       .  S
O217        C230   1.261       .  A
O217       Co225   2.011       .  S
O218        C231   1.252       .  A
O218       Co226   1.959       .  S
O219        C232   1.265       .  A
O219       Co227   1.874       .  S
O220        C232   1.302       .  A
O220       Co225   2.132       .  S
O221        C231   1.279       .  A
O221       Co224   2.053       .  S
O222        C229   1.271       .  A
O222       Co227   1.977       .  S
O223        C230   1.253       .  A
O223       Co226   1.963       .  S
Co224       O228   2.016       .  S
Co225       O228   1.991       .  S
Co226       O228   2.017       .  S
Co227       O228   1.992       .  S
O233        C241   1.252       .  A
O233       Co427   1.959       .  S
O234        C242   1.265       .  A
O235        C243   1.273       .  A
O235      Co1299   2.013       .  S
O236        C244   1.261       .  A
O237        C243   1.271       .  A
O238        C244   1.253       .  A
O238       Co253   1.963       .  S
O239        C242   1.302       .  A
O239      Co1242   2.133       .  S
O240        C241   1.278       .  A
O240       Co255   2.053       .  S
C241        C289   1.462       .  S
C242        C290   1.471       .  S
C243        C288   1.452       .  S
C244        C287   1.452       .  S
O245        C258   1.273       .  A
O245       Co311   2.014       .  S
O246        C259   1.261       .  A
O246       Co254   2.012       .  S
O247        C260   1.252       .  A
O247       Co313   1.959       .  S
O248        C261   1.265       .  A
O248      Co1300   1.874       .  S
O249        C261   1.302       .  A
O250        C260   1.279       .  A
O250       Co485   2.053       .  S
O251        C258   1.271       .  A
O251       Co256   1.977       .  S
O252        C259   1.253       .  A
O252      Co1357   1.962       .  S
Co254       O466   1.874       .  S
Co254       O295   1.977       .  S
Co254       O423   2.133       .  S
Co254      O1359   1.992   1_455  S
Co255       O757   2.013       .  S
Co255       O716   1.963       .  S
Co255       O257   2.017       .  S
Co256       O294   2.011       .  S
Co256       O819   2.132       .  S
Co256       O770   1.874       .  S
O257       Co427   2.017       .  S
O257       Co718   1.991       .  S
O257       Co372   1.991       .  S
C258        C273   1.452       .  S
C259        C272   1.452       .  S
C260        C270   1.463       .  S
C261        C271   1.471       .  S
O262        C270   1.252       .  A
O262       Co282   1.959       .  S
O263        C271   1.265       .  A
O263       Co283   1.875       .  S
O264        C272   1.273       .  A
O264       Co284   2.012       .  S
O265        C273   1.261       .  A
O265       Co285   2.012       .  S
O266        C272   1.272       .  A
O266       Co283   1.977       .  S
O267        C273   1.254       .  A
O267       Co282   1.964       .  S
O268        C271   1.302       .  A
O268       Co285   2.132       .  S
O269        C270   1.279       .  A
O269       Co284   2.053       .  S
O274        C287   1.273       .  A
O274       Co282   2.013       .  S
O275        C288   1.261       .  A
O275       Co283   2.012       .  S
O276        C289   1.252       .  A
O276       Co284   1.958       .  S
O277        C290   1.265       .  A
O277       Co285   1.874       .  S
O278        C290   1.302       .  A
O278       Co283   2.133       .  S
O279        C289   1.279       .  A
O279       Co282   2.053       .  S
O280        C287   1.272       .  A
O280       Co285   1.977       .  S
O281        C288   1.253       .  A
O281       Co284   1.963       .  S
Co282       O286   2.017       .  S
Co283       O286   1.992       .  S
Co284       O286   2.016       .  S
Co285       O286   1.991       .  S
O291        C299   1.252       .  A
O291       Co485   1.959       .  S
O292        C300   1.265       .  A
O293        C301   1.273       .  A
O293      Co1357   2.013       .  S
O294        C302   1.261       .  A
O295        C301   1.272       .  A
O296        C302   1.254       .  A
O296       Co311   1.963       .  S
O297        C300   1.302       .  A
O297      Co1300   2.132       .  S
O298        C299   1.278       .  A
O298       Co313   2.052       .  S
C299        C347   1.462       .  S
C300        C348   1.471       .  S
C301        C346   1.452       .  S
C302        C345   1.452       .  S
O303        C316   1.273       .  A
O304        C317   1.261       .  A
O304       Co312   2.011   1_556  S
O305        C318   1.252       .  A
O306        C319   1.265       .  A
O306      Co1358   1.874       .  S
O307        C319   1.302       .  A
O308        C318   1.279       .  A
O308       Co369   2.053   1_556  S
O309        C316   1.271       .  A
O309       Co314   1.976       .  S
O310        C317   1.254       .  A
O310      Co1241   1.963       .  S
Co312       O350   1.874       .  S
Co312       O481   2.132   1_554  S
Co312      O1243   1.991   1_454  S
Co313       O815   2.013       .  S
Co313       O774   1.963       .  S
Co313       O315   2.017       .  S
Co314       O703   2.131   1_556  S
Co314       O828   1.874       .  S
O315       Co485   2.017       .  S
O315       Co776   1.992       .  S
O315       Co430   1.992       .  S
C316        C331   1.452       .  S
C317        C330   1.452       .  S
C318        C328   1.463       .  S
C319        C329   1.470       .  S
O320        C328   1.252       .  A
O320       Co340   1.959       .  S
O321        C329   1.265       .  A
O321       Co341   1.874       .  S
O322        C330   1.273       .  A
O322       Co342   2.013       .  S
O323        C331   1.261       .  A
O323       Co343   2.011       .  S
O324        C330   1.271       .  A
O324       Co341   1.977       .  S
O325        C331   1.253       .  A
O325       Co340   1.963       .  S
O326        C329   1.302       .  A
O326       Co343   2.132       .  S
O327        C328   1.279       .  A
O327       Co342   2.053       .  S
O332        C345   1.273       .  A
O332       Co340   2.014       .  S
O333        C346   1.261       .  A
O333       Co341   2.012       .  S
O334        C347   1.252       .  A
O334       Co342   1.958       .  S
O335        C348   1.265       .  A
O335       Co343   1.875       .  S
O336        C348   1.302       .  A
O336       Co341   2.133       .  S
O337        C347   1.278       .  A
O337       Co340   2.053       .  S
O338        C345   1.271       .  A
O338       Co343   1.976       .  S
O339        C346   1.253       .  A
O339       Co342   1.963       .  S
Co340       O344   2.017       .  S
Co341       O344   1.992       .  S
Co342       O344   2.016       .  S
Co343       O344   1.992       .  S
O349        C357   1.252       .  A
O350        C358   1.265       .  A
O351        C359   1.273       .  A
O351      Co1415   2.013   1_554  S
O352        C360   1.261       .  A
O352       Co488   2.011   1_554  S
O353        C359   1.271       .  A
O353       Co486   1.976   1_565  S
O354        C360   1.253       .  A
O354       Co369   1.963       .  S
O355        C358   1.302       .  A
O355      Co1532   2.132   1_554  S
O356        C357   1.279       .  A
O356       Co371   2.052   1_554  S
C357        C405   1.462       .  S
C358        C406   1.470       .  S
C359        C404   1.452       .  S
C360        C403   1.452       .  S
O361        C374   1.273       .  A
O361       Co427   2.013       .  S
O362        C375   1.261       .  A
O362       Co370   2.010   1_565  S
O363        C376   1.252       .  A
O363       Co429   1.959       .  S
O364        C377   1.265       .  A
O364      Co1416   1.874       .  S
O365        C377   1.302       .  A
O366        C376   1.278       .  A
O367        C374   1.271       .  A
O367       Co372   1.977       .  S
O368        C375   1.254       .  A
O368      Co1473   1.963       .  S
Co369       O477   2.014   1_554  S
Co370       O411   1.977   1_545  S
Co370      O1475   1.991   1_445  S
Co371       O873   2.013   1_556  S
Co371       O479   1.959       .  S
Co371      O1006   1.963       .  S
Co371       O373   2.016   1_556  S
Co372       O410   2.011       .  S
Co372       O935   2.132       .  S
Co372       O886   1.874       .  S
O373      Co1008   1.991   1_565  S
C374        C389   1.452       .  S
C375        C388   1.451       .  S
C376        C386   1.462       .  S
C377        C387   1.470       .  S
O378        C386   1.252       .  A
O378       Co398   1.959       .  S
O379        C387   1.265       .  A
O379       Co399   1.874       .  S
O380        C388   1.273       .  A
O380       Co400   2.013       .  S
O381        C389   1.261       .  A
O381       Co401   2.011       .  S
O382        C388   1.271       .  A
O382       Co399   1.976       .  S
O383        C389   1.254       .  A
O383       Co398   1.964       .  S
O384        C387   1.302       .  A
O384       Co401   2.132       .  S
O385        C386   1.278       .  A
O385       Co400   2.052       .  S
O390        C403   1.273       .  A
O390       Co398   2.013       .  S
O391        C404   1.261       .  A
O391       Co399   2.011       .  S
O392        C405   1.252       .  A
O392       Co400   1.959       .  S
O393        C406   1.265       .  A
O393       Co401   1.874       .  S
O394        C406   1.302       .  A
O394       Co399   2.131       .  S
O395        C405   1.278       .  A
O395       Co398   2.052       .  S
O396        C403   1.271       .  A
O396       Co401   1.976       .  S
O397        C404   1.254       .  A
O397       Co400   1.964       .  S
Co398       O402   2.016       .  S
Co399       O402   1.991       .  S
Co400       O402   2.017       .  S
Co401       O402   1.991       .  S
O407        C415   1.252       .  A
O408        C416   1.265       .  A
O409        C417   1.273       .  A
O409      Co1473   2.013       .  S
O410        C418   1.261       .  A
O411        C417   1.271       .  A
O412        C418   1.254       .  A
O412       Co427   1.963       .  S
O413        C416   1.302       .  A
O413      Co1416   2.132       .  S
O414        C415   1.278       .  A
O414       Co429   2.052       .  S
C415        C463   1.462       .  S
C416        C464   1.470       .  S
C417        C462   1.452       .  S
C418        C461   1.452       .  S
O419        C432   1.273       .  A
O419       Co485   2.013       .  S
O420        C433   1.261       .  A
O420       Co428   2.012   1_565  S
O421        C434   1.252       .  A
O421       Co487   1.959       .  S
O422        C435   1.265       .  A
O422      Co1474   1.874       .  S
O423        C435   1.302       .  A
O424        C434   1.279       .  A
O425        C432   1.271       .  A
O425       Co430   1.976       .  S
O426        C433   1.253       .  A
O426      Co1531   1.963       .  S
Co428       O469   1.976   1_545  S
Co428      O1533   1.992   1_445  S
Co429       O931   2.013       .  S
Co429       O890   1.963       .  S
Co429       O431   2.017       .  S
Co430       O468   2.011       .  S
Co430       O993   2.132       .  S
Co430       O944   1.875       .  S
O431       Co892   1.991   1_565  S
C432        C447   1.452       .  S
C433        C446   1.452       .  S
C434        C444   1.462       .  S
C435        C445   1.471       .  S
O436        C444   1.252       .  A
O436       Co456   1.959       .  S
O437        C445   1.265       .  A
O437       Co457   1.875       .  S
O438        C446   1.273       .  A
O438       Co458   2.013       .  S
O439        C447   1.261       .  A
O439       Co459   2.011       .  S
O440        C446   1.271       .  A
O440       Co457   1.977       .  S
O441        C447   1.254       .  A
O441       Co456   1.963       .  S
O442        C445   1.302       .  A
O442       Co459   2.132       .  S
O443        C444   1.278       .  A
O443       Co458   2.052       .  S
O448        C461   1.273       .  A
O448       Co456   2.013       .  S
O449        C462   1.261       .  A
O449       Co457   2.012       .  S
O450        C463   1.252       .  A
O450       Co458   1.959       .  S
O451        C464   1.265       .  A
O451       Co459   1.874       .  S
O452        C464   1.302       .  A
O452       Co457   2.132       .  S
O453        C463   1.278       .  A
O453       Co456   2.053       .  S
O454        C461   1.271       .  A
O454       Co459   1.976       .  S
O455        C462   1.253       .  A
O455       Co458   1.963       .  S
Co456       O460   2.016       .  S
Co457       O460   1.991       .  S
Co458       O460   2.017       .  S
Co459       O460   1.991       .  S
O465        C473   1.252       .  A
O466        C474   1.265       .  A
O467        C475   1.273       .  A
O467      Co1531   2.014       .  S
O468        C476   1.261       .  A
O469        C475   1.271       .  A
O470        C476   1.254       .  A
O470       Co485   1.964       .  S
O471        C474   1.302       .  A
O471      Co1474   2.132       .  S
O472        C473   1.278       .  A
O472       Co487   2.052       .  S
C473        C521   1.462       .  S
C474        C522   1.470       .  S
C475        C520   1.452       .  S
C476        C519   1.452       .  S
O477        C490   1.273       .  A
O478        C491   1.261       .  A
O478       Co486   2.010   1_566  S
O479        C492   1.252       .  A
O480        C493   1.265       .  A
O480      Co1532   1.874       .  S
O481        C493   1.302       .  A
O482        C492   1.278       .  A
O483        C490   1.271       .  A
O483       Co488   1.976       .  S
O484        C491   1.254       .  A
O484      Co1415   1.963       .  S
Co486      O1417   1.991   1_445  S
Co487       O989   2.014       .  S
Co487       O948   1.963       .  S
Co487       O489   2.017       .  S
Co488       O877   2.132   1_556  S
Co488      O1002   1.875       .  S
O489       Co950   1.991   1_565  S
C490        C505   1.452       .  S
C491        C504   1.451       .  S
C492        C502   1.462       .  S
C493        C503   1.470       .  S
O494        C502   1.252       .  A
O494       Co514   1.958       .  S
O495        C503   1.265       .  A
O495       Co515   1.874       .  S
O496        C504   1.273       .  A
O496       Co516   2.013       .  S
O497        C505   1.261       .  A
O497       Co517   2.011       .  S
O498        C504   1.271       .  A
O498       Co515   1.976       .  S
O499        C505   1.253       .  A
O499       Co514   1.963       .  S
O500        C503   1.302       .  A
O500       Co517   2.132       .  S
O501        C502   1.279       .  A
O501       Co516   2.053       .  S
O506        C519   1.273       .  A
O506       Co514   2.014       .  S
O507        C520   1.261       .  A
O507       Co515   2.012       .  S
O508        C521   1.251       .  A
O508       Co516   1.958       .  S
O509        C522   1.265       .  A
O509       Co517   1.874       .  S
O510        C522   1.302       .  A
O510       Co515   2.132       .  S
O511        C521   1.278       .  A
O511       Co514   2.053       .  S
O512        C519   1.271       .  A
O512       Co517   1.976       .  S
O513        C520   1.253       .  A
O513       Co516   1.963       .  S
Co514       O518   2.017       .  S
Co515       O518   1.992       .  S
Co516       O518   2.016       .  S
Co517       O518   1.991       .  S
O523        C531   1.252       .  A
O523       Co717   1.958       .  S
O524        C532   1.265       .  A
O524      Co1008   1.874       .  S
O525        C533   1.273       .  A
O526        C534   1.261       .  A
O526       Co662   2.011   1_554  S
O527        C533   1.271       .  A
O527       Co660   1.976       .  S
O528        C534   1.254       .  A
O528       Co543   1.964       .  S
O529        C532   1.302       .  A
O530        C531   1.279       .  A
O530       Co545   2.052   1_554  S
C531        C579   1.462       .  S
C532        C580   1.470       .  S
C533        C578   1.451       .  S
C534        C577   1.452       .  S
O535        C548   1.273       .  A
O535       Co601   2.013       .  S
O536        C549   1.261       .  A
O536       Co544   2.011       .  S
O537        C550   1.252       .  A
O537       Co603   1.959       .  S
O538        C551   1.265       .  A
O539        C551   1.302       .  A
O539       Co892   2.133       .  S
O540        C550   1.278       .  A
O540       Co775   2.053       .  S
O541        C548   1.271       .  A
O541       Co546   1.976       .  S
O542        C549   1.254       .  A
Co543       O871   1.959   1_545  S
Co543       O651   2.014   1_554  S
Co543      O1004   2.052   1_544  S
Co543       O895   2.017   1_545  S
Co544       O756   1.874       .  S
Co544       O585   1.976       .  S
Co544       O713   2.131       .  S
Co545      O1047   2.013   1_556  S
Co545       O653   1.959       .  S
Co545      O1180   1.963       .  S
Co545       O547   2.017       .  S
Co546       O584   2.011       .  S
Co546      O1109   2.131       .  S
Co546      O1060   1.874       .  S
Co546       O953   1.991   1_545  S
O547       Co717   2.017   1_556  S
O547      Co1182   1.991   1_556  S
O547       Co836   1.991       .  S
C548        C563   1.451       .  S
C549        C562   1.453       .  S
C550        C560   1.462       .  S
C551        C561   1.470       .  S
O552        C560   1.252       .  A
O552       Co572   1.959       .  S
O553        C561   1.265       .  A
O553       Co573   1.874       .  S
O554        C562   1.273       .  A
O554       Co574   2.014       .  S
O555        C563   1.260       .  A
O555       Co575   2.010       .  S
O556        C562   1.272       .  A
O556       Co573   1.977       .  S
O557        C563   1.254       .  A
O557       Co572   1.963       .  S
O558        C561   1.302       .  A
O558       Co575   2.132       .  S
O559        C560   1.279       .  A
O559       Co574   2.053       .  S
O564        C577   1.273       .  A
O564       Co572   2.014       .  S
O565        C578   1.261       .  A
O565       Co573   2.011       .  S
O566        C579   1.252       .  A
O566       Co574   1.958       .  S
O567        C580   1.265       .  A
O567       Co575   1.874       .  S
O568        C580   1.302       .  A
O568       Co573   2.133       .  S
O569        C579   1.278       .  A
O569       Co572   2.052       .  S
O570        C577   1.271       .  A
O570       Co575   1.976       .  S
O571        C578   1.253       .  A
O571       Co574   1.963       .  S
Co572       O576   2.017       .  S
Co573       O576   1.991       .  S
Co574       O576   2.016       .  S
Co575       O576   1.991       .  S
O581        C589   1.252       .  A
O581       Co775   1.959       .  S
O582        C590   1.265       .  A
O582       Co892   1.874       .  S
O583        C591   1.273       .  A
O584        C592   1.260       .  A
O585        C591   1.271       .  A
O586        C592   1.254       .  A
O586       Co601   1.963       .  S
O587        C590   1.302       .  A
O588        C589   1.279       .  A
O588       Co603   2.053       .  S
C589        C637   1.463       .  S
C590        C638   1.470       .  S
C591        C636   1.452       .  S
C592        C635   1.452       .  S
O593        C606   1.273       .  A
O593       Co659   2.014       .  S
O594        C607   1.261       .  A
O594       Co602   2.011       .  S
O595        C608   1.252       .  A
O595       Co661   1.959       .  S
O596        C609   1.265       .  A
O597        C609   1.302       .  A
O597       Co950   2.132       .  S
O598        C608   1.278       .  A
O598       Co833   2.052       .  S
O599        C606   1.271       .  A
O599       Co604   1.977       .  S
O600        C607   1.254       .  A
Co601       O929   1.959   1_545  S
Co601       O888   2.053   1_545  S
Co601       O953   2.017   1_545  S
Co602       O814   1.874       .  S
Co602       O643   1.977       .  S
Co602       O771   2.132       .  S
Co603      O1105   2.013       .  S
Co603      O1064   1.963       .  S
Co603       O605   2.016       .  S
Co604       O642   2.012       .  S
Co604      O1167   2.132       .  S
Co604      O1118   1.874       .  S
Co604      O1011   1.992   1_545  S
O605       Co775   2.016       .  S
O605      Co1066   1.992       .  S
O605       Co720   1.992       .  S
C606        C621   1.452       .  S
C607        C620   1.452       .  S
C608        C618   1.462       .  S
C609        C619   1.471       .  S
O610        C618   1.252       .  A
O610       Co630   1.959       .  S
O611        C619   1.265       .  A
O611       Co631   1.875       .  S
O612        C620   1.273       .  A
O612       Co632   2.014       .  S
O613        C621   1.261       .  A
O613       Co633   2.011       .  S
O614        C620   1.271       .  A
O614       Co631   1.976       .  S
O615        C621   1.254       .  A
O615       Co630   1.963       .  S
O616        C619   1.302       .  A
O616       Co633   2.132       .  S
O617        C618   1.278       .  A
O617       Co632   2.053       .  S
O622        C635   1.273       .  A
O622       Co630   2.013       .  S
O623        C636   1.261       .  A
O623       Co631   2.011       .  S
O624        C637   1.252       .  A
O624       Co632   1.959       .  S
O625        C638   1.265       .  A
O625       Co633   1.874       .  S
O626        C638   1.302       .  A
O626       Co631   2.132       .  S
O627        C637   1.279       .  A
O627       Co630   2.053       .  S
O628        C635   1.271       .  A
O628       Co633   1.976       .  S
O629        C636   1.254       .  A
O629       Co632   1.963       .  S
Co630       O634   2.016       .  S
Co631       O634   1.992       .  S
Co632       O634   2.018       .  S
Co633       O634   1.992       .  S
O639        C647   1.252       .  A
O639       Co833   1.959       .  S
O640        C648   1.265       .  A
O640       Co950   1.874       .  S
O641        C649   1.273       .  A
O642        C650   1.261       .  A
O643        C649   1.271       .  A
O644        C650   1.253       .  A
O644       Co659   1.962       .  S
O645        C648   1.302       .  A
O646        C647   1.279       .  A
O646       Co661   2.053       .  S
C647        C695   1.463       .  S
C648        C696   1.471       .  S
C649        C694   1.452       .  S
C650        C693   1.452       .  S
O651        C664   1.273       .  A
O652        C665   1.261       .  A
O652       Co660   2.013   1_556  S
O653        C666   1.252       .  A
O654        C667   1.265       .  A
O655        C667   1.302       .  A
O655      Co1008   2.133   1_556  S
O656        C666   1.279       .  A
O656       Co717   2.053   1_556  S
O657        C664   1.271       .  A
O657       Co662   1.977       .  S
O658        C665   1.253       .  A
Co659       O987   1.958   1_545  S
Co659       O946   2.052   1_545  S
Co659      O1011   2.016   1_545  S
Co660       O698   1.875       .  S
Co660       O829   2.131   1_554  S
Co661      O1163   2.013       .  S
Co661      O1122   1.963       .  S
Co661       O663   2.017       .  S
Co662      O1051   2.132   1_556  S
Co662      O1176   1.874       .  S
Co662       O895   1.991   1_546  S
O663       Co833   2.017       .  S
O663      Co1124   1.992       .  S
O663       Co778   1.992       .  S
C664        C679   1.452       .  S
C665        C678   1.452       .  S
C666        C676   1.462       .  S
C667        C677   1.471       .  S
O668        C676   1.252       .  A
O668       Co688   1.958       .  S
O669        C677   1.265       .  A
O669       Co689   1.874       .  S
O670        C678   1.273       .  A
O670       Co690   2.013       .  S
O671        C679   1.261       .  A
O671       Co691   2.012       .  S
O672        C678   1.271       .  A
O672       Co689   1.977       .  S
O673        C679   1.253       .  A
O673       Co688   1.963       .  S
O674        C677   1.302       .  A
O674       Co691   2.132       .  S
O675        C676   1.279       .  A
O675       Co690   2.052       .  S
O680        C693   1.273       .  A
O680       Co688   2.013       .  S
O681        C694   1.261       .  A
O681       Co689   2.012       .  S
O682        C695   1.252       .  A
O682       Co690   1.959       .  S
O683        C696   1.265       .  A
O683       Co691   1.875       .  S
O684        C696   1.302       .  A
O684       Co689   2.132       .  S
O685        C695   1.279       .  A
O685       Co688   2.053       .  S
O686        C693   1.271       .  A
O686       Co691   1.977       .  S
O687        C694   1.254       .  A
O687       Co690   1.964       .  S
Co688       O692   2.016       .  S
Co689       O692   1.991       .  S
Co690       O692   2.017       .  S
Co691       O692   1.992       .  S
O697        C705   1.252       .  A
O697       Co891   1.959       .  S
O698        C706   1.265       .  A
O699        C707   1.273       .  A
O700        C708   1.261       .  A
O700       Co836   2.011   1_554  S
O701        C707   1.271       .  A
O701       Co834   1.976       .  S
O702        C708   1.254       .  A
O702       Co717   1.964       .  S
O703        C706   1.302       .  A
O704        C705   1.278       .  A
O704       Co719   2.052   1_554  S
C705        C753   1.462       .  S
C706        C754   1.471       .  S
C707        C752   1.452       .  S
C708        C751   1.452       .  S
O709        C722   1.273       .  A
O709       Co775   2.013       .  S
O710        C723   1.261       .  A
O710       Co718   2.010       .  S
O711        C724   1.252       .  A
O711       Co777   1.958       .  S
O712        C725   1.265       .  A
O713        C725   1.302       .  A
O714        C724   1.278       .  A
O714       Co949   2.053       .  S
O715        C722   1.271       .  A
O715       Co720   1.977       .  S
O716        C723   1.254       .  A
Co717       O825   2.013   1_554  S
Co718       O930   1.874       .  S
Co718       O759   1.976       .  S
Co718       O887   2.133       .  S
Co719      O1221   2.013   1_556  S
Co719       O827   1.959       .  S
Co719      O1354   1.963       .  S
Co719       O721   2.017       .  S
Co720       O758   2.012       .  S
Co720      O1283   2.132       .  S
Co720      O1234   1.875       .  S
O721       Co891   2.016   1_556  S
O721      Co1356   1.991   1_556  S
O721      Co1010   1.992       .  S
C722        C737   1.452       .  S
C723        C736   1.452       .  S
C724        C734   1.462       .  S
C725        C735   1.470       .  S
O726        C734   1.252       .  A
O726       Co746   1.958       .  S
O727        C735   1.265       .  A
O727       Co747   1.875       .  S
O728        C736   1.273       .  A
O728       Co748   2.014       .  S
O729        C737   1.261       .  A
O729       Co749   2.012       .  S
O730        C736   1.271       .  A
O730       Co747   1.976       .  S
O731        C737   1.253       .  A
O731       Co746   1.962       .  S
O732        C735   1.302       .  A
O732       Co749   2.132       .  S
O733        C734   1.278       .  A
O733       Co748   2.053       .  S
O738        C751   1.273       .  A
O738       Co746   2.014       .  S
O739        C752   1.261       .  A
O739       Co747   2.011       .  S
O740        C753   1.252       .  A
O740       Co748   1.958       .  S
O741        C754   1.265       .  A
O741       Co749   1.875       .  S
O742        C754   1.302       .  A
O742       Co747   2.132       .  S
O743        C753   1.278       .  A
O743       Co746   2.053       .  S
O744        C751   1.271       .  A
O744       Co749   1.976       .  S
O745        C752   1.253       .  A
O745       Co748   1.963       .  S
Co746       O750   2.017       .  S
Co747       O750   1.992       .  S
Co748       O750   2.017       .  S
Co749       O750   1.992       .  S
O755        C763   1.252       .  A
O755       Co949   1.959       .  S
O756        C764   1.265       .  A
O757        C765   1.273       .  A
O758        C766   1.261       .  A
O759        C765   1.271       .  A
O760        C766   1.253       .  A
O760       Co775   1.963       .  S
O761        C764   1.302       .  A
O762        C763   1.279       .  A
O762       Co777   2.053       .  S
C763        C811   1.463       .  S
C764        C812   1.470       .  S
C765        C810   1.452       .  S
C766        C809   1.452       .  S
O767        C780   1.273       .  A
O767       Co833   2.013       .  S
O768        C781   1.261       .  A
O768       Co776   2.011       .  S
O769        C782   1.252       .  A
O769       Co835   1.959       .  S
O770        C783   1.265       .  A
O771        C783   1.302       .  A
O772        C782   1.278       .  A
O772      Co1007   2.052       .  S
O773        C780   1.272       .  A
O773       Co778   1.977       .  S
O774        C781   1.254       .  A
Co776       O988   1.875       .  S
Co776       O817   1.977       .  S
Co776       O945   2.133       .  S
Co777      O1279   2.013       .  S
Co777      O1238   1.963       .  S
Co777       O779   2.016       .  S
Co778       O816   2.012       .  S
Co778      O1341   2.132       .  S
Co778      O1292   1.875       .  S
O779       Co949   2.017       .  S
O779      Co1240   1.992       .  S
O779       Co894   1.991       .  S
C780        C795   1.452       .  S
C781        C794   1.452       .  S
C782        C792   1.462       .  S
C783        C793   1.471       .  S
O784        C792   1.252       .  A
O784       Co804   1.959       .  S
O785        C793   1.265       .  A
O785       Co805   1.874       .  S
O786        C794   1.273       .  A
O786       Co806   2.013       .  S
O787        C795   1.261       .  A
O787       Co807   2.011       .  S
O788        C794   1.271       .  A
O788       Co805   1.977       .  S
O789        C795   1.254       .  A
O789       Co804   1.963       .  S
O790        C793   1.302       .  A
O790       Co807   2.133       .  S
O791        C792   1.278       .  A
O791       Co806   2.052       .  S
O796        C809   1.273       .  A
O796       Co804   2.013       .  S
O797        C810   1.261       .  A
O797       Co805   2.010       .  S
O798        C811   1.252       .  A
O798       Co806   1.959       .  S
O799        C812   1.265       .  A
O799       Co807   1.874       .  S
O800        C812   1.302       .  A
O800       Co805   2.132       .  S
O801        C811   1.278       .  A
O801       Co804   2.052       .  S
O802        C809   1.272       .  A
O802       Co807   1.977       .  S
O803        C810   1.254       .  A
O803       Co806   1.964       .  S
Co804       O808   2.017       .  S
Co805       O808   1.991       .  S
Co806       O808   2.017       .  S
Co807       O808   1.992       .  S
O813        C821   1.252       .  A
O813      Co1007   1.959       .  S
O814        C822   1.265       .  A
O815        C823   1.273       .  A
O816        C824   1.261       .  A
O817        C823   1.272       .  A
O818        C824   1.254       .  A
O818       Co833   1.963       .  S
O819        C822   1.302       .  A
O820        C821   1.278       .  A
O820       Co835   2.052       .  S
C821        C869   1.462       .  S
C822        C870   1.471       .  S
C823        C868   1.452       .  S
C824        C867   1.452       .  S
O825        C838   1.273       .  A
O826        C839   1.261       .  A
O826       Co834   2.012   1_556  S
O827        C840   1.252       .  A
O828        C841   1.265       .  A
O829        C841   1.302       .  A
O830        C840   1.279       .  A
O830       Co891   2.053   1_556  S
O831        C838   1.271       .  A
O831       Co836   1.977       .  S
O832        C839   1.253       .  A
Co834       O872   1.875       .  S
Co834      O1003   2.132   1_554  S
Co835      O1337   2.013       .  S
Co835      O1296   1.963       .  S
Co835       O837   2.017       .  S
Co836      O1225   2.133   1_556  S
Co836      O1350   1.874       .  S
O837      Co1007   2.017       .  S
O837      Co1298   1.992       .  S
O837       Co952   1.992       .  S
C838        C853   1.452       .  S
C839        C852   1.452       .  S
C840        C850   1.463       .  S
C841        C851   1.470       .  S
O842        C850   1.252       .  A
O842       Co862   1.959       .  S
O843        C851   1.265       .  A
O843       Co863   1.874       .  S
O844        C852   1.273       .  A
O844       Co864   2.013       .  S
O845        C853   1.261       .  A
O845       Co865   2.011       .  S
O846        C852   1.271       .  A
O846       Co863   1.977       .  S
O847        C853   1.254       .  A
O847       Co862   1.964       .  S
O848        C851   1.302       .  A
O848       Co865   2.132       .  S
O849        C850   1.278       .  A
O849       Co864   2.052       .  S
O854        C867   1.273       .  A
O854       Co862   2.014       .  S
O855        C868   1.261       .  A
O855       Co863   2.011       .  S
O856        C869   1.252       .  A
O856       Co864   1.958       .  S
O857        C870   1.265       .  A
O857       Co865   1.874       .  S
O858        C870   1.302       .  A
O858       Co863   2.133       .  S
O859        C869   1.279       .  A
O859       Co862   2.053       .  S
O860        C867   1.271       .  A
O860       Co865   1.977       .  S
O861        C868   1.254       .  A
O861       Co864   1.963       .  S
Co862       O866   2.017       .  S
Co863       O866   1.992       .  S
Co864       O866   2.017       .  S
Co865       O866   1.991       .  S
O871        C879   1.252       .  A
O872        C880   1.265       .  A
O873        C881   1.273       .  A
O874        C882   1.261       .  A
O874      Co1010   2.012   1_554  S
O875        C881   1.272       .  A
O875      Co1008   1.977   1_565  S
O876        C882   1.253       .  A
O876       Co891   1.963       .  S
O877        C880   1.302       .  A
O878        C879   1.279       .  A
O878       Co893   2.053   1_554  S
C879        C927   1.462       .  S
C880        C928   1.471       .  S
C881        C926   1.452       .  S
C882        C925   1.452       .  S
O883        C896   1.273       .  A
O883       Co949   2.013       .  S
O884        C897   1.261       .  A
O884       Co892   2.011   1_565  S
O885        C898   1.252       .  A
O885       Co951   1.959       .  S
O886        C899   1.265       .  A
O887        C899   1.302       .  A
O888        C898   1.278       .  A
O889        C896   1.271       .  A
O889       Co894   1.976       .  S
O890        C897   1.254       .  A
Co891       O999   2.014   1_554  S
Co892       O933   1.977   1_545  S
Co893      O1395   2.013   1_556  S
Co893      O1001   1.958       .  S
Co893      O1528   1.963       .  S
Co893       O895   2.016   1_556  S
Co894       O932   2.011       .  S
Co894      O1457   2.132       .  S
Co894      O1408   1.874       .  S
O895      Co1530   1.991   1_565  S
C896        C911   1.452       .  S
C897        C910   1.452       .  S
C898        C908   1.462       .  S
C899        C909   1.471       .  S
O900        C908   1.252       .  A
O900       Co920   1.959       .  S
O901        C909   1.265       .  A
O901       Co921   1.874       .  S
O902        C910   1.273       .  A
O902       Co922   2.013       .  S
O903        C911   1.261       .  A
O903       Co923   2.012       .  S
O904        C910   1.272       .  A
O904       Co921   1.977       .  S
O905        C911   1.253       .  A
O905       Co920   1.963       .  S
O906        C909   1.302       .  A
O906       Co923   2.133       .  S
O907        C908   1.279       .  A
O907       Co922   2.053       .  S
O912        C925   1.273       .  A
O912       Co920   2.013       .  S
O913        C926   1.261       .  A
O913       Co921   2.012       .  S
O914        C927   1.252       .  A
O914       Co922   1.959       .  S
O915        C928   1.265       .  A
O915       Co923   1.875       .  S
O916        C928   1.302       .  A
O916       Co921   2.132       .  S
O917        C927   1.278       .  A
O917       Co920   2.053       .  S
O918        C925   1.271       .  A
O918       Co923   1.976       .  S
O919        C926   1.253       .  A
O919       Co922   1.963       .  S
Co920       O924   2.017       .  S
Co921       O924   1.991       .  S
Co922       O924   2.016       .  S
Co923       O924   1.992       .  S
O929        C937   1.252       .  A
O930        C938   1.265       .  A
O931        C939   1.273       .  A
O932        C940   1.261       .  A
O933        C939   1.271       .  A
O934        C940   1.253       .  A
O934       Co949   1.963       .  S
O935        C938   1.302       .  A
O936        C937   1.278       .  A
O936       Co951   2.052       .  S
C937        C985   1.462       .  S
C938        C986   1.471       .  S
C939        C984   1.452       .  S
C940        C983   1.452       .  S
O941        C954   1.273       .  A
O941      Co1007   2.014       .  S
O942        C955   1.261       .  A
O942       Co950   2.011   1_565  S
O943        C956   1.252       .  A
O943      Co1009   1.959       .  S
O944        C957   1.265       .  A
O945        C957   1.302       .  A
O946        C956   1.278       .  A
O947        C954   1.271       .  A
O947       Co952   1.977       .  S
O948        C955   1.253       .  A
Co950       O991   1.977   1_545  S
Co951      O1453   2.014       .  S
Co951      O1412   1.963       .  S
Co951       O953   2.016       .  S
Co952       O990   2.011       .  S
Co952      O1515   2.133       .  S
Co952      O1466   1.874       .  S
O953      Co1414   1.992   1_565  S
C954        C969   1.452       .  S
C955        C968   1.452       .  S
C956        C966   1.462       .  S
C957        C967   1.471       .  S
O958        C966   1.252       .  A
O958       Co978   1.959       .  S
O959        C967   1.265       .  A
O959       Co979   1.874       .  S
O960        C968   1.273       .  A
O960       Co980   2.013       .  S
O961        C969   1.261       .  A
O961       Co981   2.011       .  S
O962        C968   1.271       .  A
O962       Co979   1.977       .  S
O963        C969   1.254       .  A
O963       Co978   1.964       .  S
O964        C967   1.302       .  A
O964       Co981   2.133       .  S
O965        C966   1.278       .  A
O965       Co980   2.052       .  S
O970        C983   1.273       .  A
O970       Co978   2.013       .  S
O971        C984   1.261       .  A
O971       Co979   2.011       .  S
O972        C985   1.252       .  A
O972       Co980   1.959       .  S
O973        C986   1.265       .  A
O973       Co981   1.874       .  S
O974        C986   1.302       .  A
O974       Co979   2.132       .  S
O975        C985   1.278       .  A
O975       Co978   2.052       .  S
O976        C983   1.271       .  A
O976       Co981   1.977       .  S
O977        C984   1.254       .  A
O977       Co980   1.963       .  S
Co978       O982   2.017       .  S
Co979       O982   1.992       .  S
Co980       O982   2.017       .  S
Co981       O982   1.992       .  S
O987        C995   1.252       .  A
O988        C996   1.265       .  A
O989        C997   1.273       .  A
O990        C998   1.261       .  A
O991        C997   1.271       .  A
O992        C998   1.254       .  A
O992      Co1007   1.963       .  S
O993        C996   1.302       .  A
O994        C995   1.278       .  A
O994      Co1009   2.053       .  S
C995       C1043   1.462       .  S
C996       C1044   1.471       .  S
C997       C1042   1.452       .  S
C998       C1041   1.452       .  S
O999       C1012   1.273       .  A
O1000      C1013   1.261       .  A
O1000     Co1008   2.011   1_566  S
O1001      C1014   1.252       .  A
O1002      C1015   1.265       .  A
O1003      C1015   1.302       .  A
O1004      C1014   1.278       .  A
O1005      C1012   1.271       .  A
O1005     Co1010   1.976       .  S
O1006      C1013   1.253       .  A
Co1009     O1511   2.014       .  S
Co1009     O1470   1.963       .  S
Co1009     O1011   2.017       .  S
Co1010     O1399   2.133   1_556  S
Co1010     O1524   1.874       .  S
O1011     Co1472   1.991   1_565  S
C1012      C1027   1.452       .  S
C1013      C1026   1.452       .  S
C1014      C1024   1.462       .  S
C1015      C1025   1.471       .  S
O1016      C1024   1.252       .  A
O1016     Co1036   1.958       .  S
O1017      C1025   1.265       .  A
O1017     Co1037   1.875       .  S
O1018      C1026   1.273       .  A
O1018     Co1038   2.013       .  S
O1019      C1027   1.261       .  A
O1019     Co1039   2.011       .  S
O1020      C1026   1.271       .  A
O1020     Co1037   1.976       .  S
O1021      C1027   1.254       .  A
O1021     Co1036   1.963       .  S
O1022      C1025   1.302       .  A
O1022     Co1039   2.132       .  S
O1023      C1024   1.278       .  A
O1023     Co1038   2.052       .  S
O1028      C1041   1.273       .  A
O1028     Co1036   2.013       .  S
O1029      C1042   1.261       .  A
O1029     Co1037   2.012       .  S
O1030      C1043   1.252       .  A
O1030     Co1038   1.958       .  S
O1031      C1044   1.265       .  A
O1031     Co1039   1.874       .  S
O1032      C1044   1.302       .  A
O1032     Co1037   2.133       .  S
O1033      C1043   1.279       .  A
O1033     Co1036   2.053       .  S
O1034      C1041   1.271       .  A
O1034     Co1039   1.977       .  S
O1035      C1042   1.253       .  A
O1035     Co1038   1.963       .  S
Co1036     O1040   2.016       .  S
Co1037     O1040   1.992       .  S
Co1038     O1040   2.017       .  S
Co1039     O1040   1.991       .  S
O1045      C1053   1.252       .  A
O1045     Co1239   1.959       .  S
O1046      C1054   1.265       .  A
O1046     Co1530   1.874       .  S
O1047      C1055   1.273       .  A
O1048      C1056   1.261       .  A
O1048     Co1184   2.011   1_654  S
O1049      C1055   1.271       .  A
O1049     Co1182   1.977       .  S
O1050      C1056   1.254       .  A
O1050     Co1065   1.963       .  S
O1051      C1054   1.302       .  A
O1052      C1053   1.278       .  A
O1052     Co1067   2.052   1_654  S
C1053      C1101   1.462       .  S
C1054      C1102   1.470       .  S
C1055      C1100   1.452       .  S
C1056      C1099   1.451       .  S
O1057      C1070   1.273       .  A
O1057     Co1123   2.013       .  S
O1058      C1071   1.261       .  A
O1058     Co1066   2.012       .  S
O1059      C1072   1.252       .  A
O1059     Co1125   1.959       .  S
O1060      C1073   1.265       .  A
O1061      C1073   1.302       .  A
O1061     Co1414   2.133       .  S
O1062      C1072   1.278       .  A
O1062     Co1297   2.052       .  S
O1063      C1070   1.271       .  A
O1063     Co1068   1.976   1_655  S
O1064      C1071   1.253       .  A
Co1065     O1393   1.959   1_545  S
Co1065     O1173   2.013   1_554  S
Co1065     O1526   2.052   1_544  S
Co1065     O1417   2.016   1_545  S
Co1066     O1278   1.875       .  S
Co1066     O1107   1.977       .  S
Co1066     O1235   2.132       .  S
Co1067     O1175   1.959   1_455  S
Co1067     O1069   2.017   1_456  S
Co1068     O1106   2.011   1_455  S
Co1068     O1475   1.991   1_445  S
O1069     Co1239   2.017       .  S
O1069     Co1358   1.991   1_654  S
C1070      C1085   1.452       .  S
C1071      C1084   1.452       .  S
C1072      C1082   1.462       .  S
C1073      C1083   1.470       .  S
O1074      C1082   1.252       .  A
O1074     Co1094   1.959       .  S
O1075      C1083   1.265       .  A
O1075     Co1095   1.874       .  S
O1076      C1084   1.273       .  A
O1076     Co1096   2.013       .  S
O1077      C1085   1.261       .  A
O1077     Co1097   2.011       .  S
O1078      C1084   1.272       .  A
O1078     Co1095   1.977       .  S
O1079      C1085   1.254       .  A
O1079     Co1094   1.964       .  S
O1080      C1083   1.302       .  A
O1080     Co1097   2.132       .  S
O1081      C1082   1.278       .  A
O1081     Co1096   2.052       .  S
O1086      C1099   1.273       .  A
O1086     Co1094   2.013       .  S
O1087      C1100   1.261       .  A
O1087     Co1095   2.011       .  S
O1088      C1101   1.252       .  A
O1088     Co1096   1.959       .  S
O1089      C1102   1.265       .  A
O1089     Co1097   1.874       .  S
O1090      C1102   1.302       .  A
O1090     Co1095   2.133       .  S
O1091      C1101   1.278       .  A
O1091     Co1094   2.052       .  S
O1092      C1099   1.271       .  A
O1092     Co1097   1.976       .  S
O1093      C1100   1.254       .  A
O1093     Co1096   1.963       .  S
Co1094     O1098   2.016       .  S
Co1095     O1098   1.991       .  S
Co1096     O1098   2.017       .  S
Co1097     O1098   1.991       .  S
O1103      C1111   1.252       .  A
O1103     Co1297   1.959       .  S
O1104      C1112   1.265       .  A
O1104     Co1414   1.874       .  S
O1105      C1113   1.273       .  A
O1106      C1114   1.261       .  A
O1107      C1113   1.271       .  A
O1108      C1114   1.253       .  A
O1108     Co1123   1.963       .  S
O1109      C1112   1.302       .  A
O1110      C1111   1.278       .  A
O1110     Co1125   2.052       .  S
C1111      C1159   1.462       .  S
C1112      C1160   1.470       .  S
C1113      C1158   1.452       .  S
C1114      C1157   1.452       .  S
O1115      C1128   1.273       .  A
O1115     Co1181   2.013       .  S
O1116      C1129   1.261       .  A
O1116     Co1124   2.012       .  S
O1117      C1130   1.252       .  A
O1117     Co1183   1.959   1_655  S
O1118      C1131   1.265       .  A
O1119      C1131   1.302       .  A
O1119     Co1472   2.132       .  S
O1120      C1130   1.278       .  A
O1120     Co1355   2.052       .  S
O1121      C1128   1.271       .  A
O1121     Co1126   1.977   1_655  S
O1122      C1129   1.254       .  A
Co1123     O1451   1.959   1_545  S
Co1123     O1410   2.053   1_545  S
Co1123     O1475   2.016   1_545  S
Co1124     O1336   1.875       .  S
Co1124     O1165   1.977       .  S
Co1124     O1293   2.132       .  S
Co1125     O1127   2.017       .  S
Co1126     O1164   2.012   1_455  S
Co1126     O1533   1.992   1_445  S
O1127     Co1297   2.016       .  S
O1127     Co1242   1.991   1_655  S
C1128      C1143   1.452       .  S
C1129      C1142   1.453       .  S
C1130      C1140   1.462       .  S
C1131      C1141   1.471       .  S
O1132      C1140   1.251       .  A
O1132     Co1152   1.958       .  S
O1133      C1141   1.265       .  A
O1133     Co1153   1.874       .  S
O1134      C1142   1.273       .  A
O1134     Co1154   2.014       .  S
O1135      C1143   1.261       .  A
O1135     Co1155   2.012       .  S
O1136      C1142   1.271       .  A
O1136     Co1153   1.977       .  S
O1137      C1143   1.253       .  A
O1137     Co1152   1.963       .  S
O1138      C1141   1.302       .  A
O1138     Co1155   2.132       .  S
O1139      C1140   1.279       .  A
O1139     Co1154   2.053       .  S
O1144      C1157   1.273       .  A
O1144     Co1152   2.013       .  S
O1145      C1158   1.261       .  A
O1145     Co1153   2.012       .  S
O1146      C1159   1.251       .  A
O1146     Co1154   1.958       .  S
O1147      C1160   1.265       .  A
O1147     Co1155   1.874       .  S
O1148      C1160   1.302       .  A
O1148     Co1153   2.132       .  S
O1149      C1159   1.279       .  A
O1149     Co1152   2.053       .  S
O1150      C1157   1.271       .  A
O1150     Co1155   1.976       .  S
O1151      C1158   1.253       .  A
O1151     Co1154   1.963       .  S
Co1152     O1156   2.016       .  S
Co1153     O1156   1.991       .  S
Co1154     O1156   2.016       .  S
Co1155     O1156   1.992       .  S
O1161      C1169   1.252       .  A
O1161     Co1355   1.958       .  S
O1162      C1170   1.265       .  A
O1162     Co1472   1.874       .  S
O1163      C1171   1.273       .  A
O1164      C1172   1.261       .  A
O1165      C1171   1.271       .  A
O1166      C1172   1.253       .  A
O1166     Co1181   1.962       .  S
O1167      C1170   1.302       .  A
O1168      C1169   1.278       .  A
O1168     Co1183   2.052   1_655  S
C1169      C1217   1.462       .  S
C1170      C1218   1.471       .  S
C1171      C1216   1.452       .  S
C1172      C1215   1.452       .  S
O1173      C1186   1.273       .  A
O1174      C1187   1.261       .  A
O1174     Co1182   2.012   1_556  S
O1175      C1188   1.252       .  A
O1176      C1189   1.265       .  A
O1177      C1189   1.302       .  A
O1177     Co1530   2.132   1_556  S
O1178      C1188   1.278       .  A
O1178     Co1239   2.052   1_556  S
O1179      C1186   1.271       .  A
O1179     Co1184   1.977   1_655  S
O1180      C1187   1.254       .  A
Co1181     O1509   1.959   1_545  S
Co1181     O1468   2.053   1_545  S
Co1181     O1533   2.016   1_545  S
Co1182     O1220   1.874       .  S
Co1182     O1351   2.132   1_554  S
Co1183     O1185   2.016   1_455  S
Co1184     O1417   1.991   1_446  S
O1185     Co1355   2.017       .  S
O1185     Co1300   1.992   1_655  S
C1186      C1201   1.452       .  S
C1187      C1200   1.452       .  S
C1188      C1198   1.462       .  S
C1189      C1199   1.470       .  S
O1190      C1198   1.252       .  A
O1190     Co1210   1.958       .  S
O1191      C1199   1.265       .  A
O1191     Co1211   1.874       .  S
O1192      C1200   1.273       .  A
O1192     Co1212   2.013       .  S
O1193      C1201   1.261       .  A
O1193     Co1213   2.012       .  S
O1194      C1200   1.271       .  A
O1194     Co1211   1.977       .  S
O1195      C1201   1.253       .  A
O1195     Co1210   1.963       .  S
O1196      C1199   1.302       .  A
O1196     Co1213   2.132       .  S
O1197      C1198   1.279       .  A
O1197     Co1212   2.053       .  S
O1202      C1215   1.273       .  A
O1202     Co1210   2.013       .  S
O1203      C1216   1.261       .  A
O1203     Co1211   2.011       .  S
O1204      C1217   1.252       .  A
O1204     Co1212   1.958       .  S
O1205      C1218   1.265       .  A
O1205     Co1213   1.874       .  S
O1206      C1218   1.302       .  A
O1206     Co1211   2.132       .  S
O1207      C1217   1.278       .  A
O1207     Co1210   2.052       .  S
O1208      C1215   1.271       .  A
O1208     Co1213   1.977       .  S
O1209      C1216   1.253       .  A
O1209     Co1212   1.963       .  S
Co1210     O1214   2.016       .  S
Co1211     O1214   1.991       .  S
Co1212     O1214   2.016       .  S
Co1213     O1214   1.991       .  S
O1219      C1227   1.252       .  A
O1219     Co1413   1.959       .  S
O1220      C1228   1.265       .  A
O1221      C1229   1.273       .  A
O1222      C1230   1.261       .  A
O1222     Co1358   2.011   1_654  S
O1223      C1229   1.271       .  A
O1223     Co1356   1.976       .  S
O1224      C1230   1.254       .  A
O1224     Co1239   1.964       .  S
O1225      C1228   1.302       .  A
O1226      C1227   1.278       .  A
O1226     Co1241   2.053   1_654  S
C1227      C1275   1.462       .  S
C1228      C1276   1.471       .  S
C1229      C1274   1.451       .  S
C1230      C1273   1.452       .  S
O1231      C1244   1.273       .  A
O1231     Co1297   2.013       .  S
O1232      C1245   1.261       .  A
O1232     Co1240   2.011       .  S
O1233      C1246   1.252       .  A
O1233     Co1299   1.958   1_655  S
O1234      C1247   1.265       .  A
O1235      C1247   1.302       .  A
O1236      C1246   1.279       .  A
O1236     Co1471   2.053       .  S
O1237      C1244   1.271       .  A
O1237     Co1242   1.976   1_655  S
O1238      C1245   1.253       .  A
Co1239     O1347   2.013   1_554  S
Co1240     O1452   1.875       .  S
Co1240     O1281   1.976       .  S
Co1240     O1409   2.132       .  S
Co1241     O1349   1.958   1_455  S
Co1241     O1243   2.017   1_455  S
Co1242     O1280   2.011   1_455  S
O1243     Co1413   2.016   1_556  S
O1243     Co1532   1.992   1_655  S
C1244      C1259   1.451       .  S
C1245      C1258   1.452       .  S
C1246      C1256   1.462       .  S
C1247      C1257   1.471       .  S
O1248      C1256   1.252       .  A
O1248     Co1268   1.959       .  S
O1249      C1257   1.265       .  A
O1249     Co1269   1.875       .  S
O1250      C1258   1.273       .  A
O1250     Co1270   2.014       .  S
O1251      C1259   1.261       .  A
O1251     Co1271   2.011       .  S
O1252      C1258   1.271       .  A
O1252     Co1269   1.976       .  S
O1253      C1259   1.253       .  A
O1253     Co1268   1.963       .  S
O1254      C1257   1.302       .  A
O1254     Co1271   2.132       .  S
O1255      C1256   1.278       .  A
O1255     Co1270   2.052       .  S
O1260      C1273   1.273       .  A
O1260     Co1268   2.013       .  S
O1261      C1274   1.261       .  A
O1261     Co1269   2.011       .  S
O1262      C1275   1.252       .  A
O1262     Co1270   1.959       .  S
O1263      C1276   1.265       .  A
O1263     Co1271   1.874       .  S
O1264      C1276   1.302       .  A
O1264     Co1269   2.133       .  S
O1265      C1275   1.279       .  A
O1265     Co1268   2.052       .  S
O1266      C1273   1.271       .  A
O1266     Co1271   1.976       .  S
O1267      C1274   1.253       .  A
O1267     Co1270   1.963       .  S
Co1268     O1272   2.016       .  S
Co1269     O1272   1.992       .  S
Co1270     O1272   2.017       .  S
Co1271     O1272   1.991       .  S
O1277      C1285   1.252       .  A
O1277     Co1471   1.958       .  S
O1278      C1286   1.265       .  A
O1279      C1287   1.273       .  A
O1280      C1288   1.261       .  A
O1281      C1287   1.271       .  A
O1282      C1288   1.253       .  A
O1282     Co1297   1.963       .  S
O1283      C1286   1.302       .  A
O1284      C1285   1.278       .  A
O1284     Co1299   2.052   1_655  S
C1285      C1333   1.462       .  S
C1286      C1334   1.471       .  S
C1287      C1332   1.452       .  S
C1288      C1331   1.452       .  S
O1289      C1302   1.273       .  A
O1289     Co1355   2.014       .  S
O1290      C1303   1.261       .  A
O1290     Co1298   2.011       .  S
O1291      C1304   1.252       .  A
O1291     Co1357   1.958   1_655  S
O1292      C1305   1.265       .  A
O1293      C1305   1.302       .  A
O1294      C1304   1.278       .  A
O1294     Co1529   2.053       .  S
O1295      C1302   1.271       .  A
O1295     Co1300   1.976   1_655  S
O1296      C1303   1.254       .  A
Co1298     O1510   1.874       .  S
Co1298     O1339   1.977       .  S
Co1298     O1467   2.133       .  S
Co1299     O1301   2.016   1_455  S
Co1300     O1338   2.011   1_455  S
O1301     Co1471   2.016       .  S
O1301     Co1416   1.991   1_655  S
C1302      C1317   1.452       .  S
C1303      C1316   1.452       .  S
C1304      C1314   1.462       .  S
C1305      C1315   1.471       .  S
O1306      C1314   1.252       .  A
O1306     Co1326   1.959       .  S
O1307      C1315   1.265       .  A
O1307     Co1327   1.874       .  S
O1308      C1316   1.273       .  A
O1308     Co1328   2.013       .  S
O1309      C1317   1.261       .  A
O1309     Co1329   2.011       .  S
O1310      C1316   1.271       .  A
O1310     Co1327   1.976       .  S
O1311      C1317   1.254       .  A
O1311     Co1326   1.963       .  S
O1312      C1315   1.302       .  A
O1312     Co1329   2.133       .  S
O1313      C1314   1.278       .  A
O1313     Co1328   2.052       .  S
O1318      C1331   1.273       .  A
O1318     Co1326   2.014       .  S
O1319      C1332   1.261       .  A
O1319     Co1327   2.011       .  S
O1320      C1333   1.252       .  A
O1320     Co1328   1.958       .  S
O1321      C1334   1.265       .  A
O1321     Co1329   1.875       .  S
O1322      C1334   1.302       .  A
O1322     Co1327   2.132       .  S
O1323      C1333   1.278       .  A
O1323     Co1326   2.052       .  S
O1324      C1331   1.271       .  A
O1324     Co1329   1.976       .  S
O1325      C1332   1.253       .  A
O1325     Co1328   1.963       .  S
Co1326     O1330   2.017       .  S
Co1327     O1330   1.992       .  S
Co1328     O1330   2.016       .  S
Co1329     O1330   1.992       .  S
O1335      C1343   1.252       .  A
O1335     Co1529   1.959       .  S
O1336      C1344   1.265       .  A
O1337      C1345   1.273       .  A
O1338      C1346   1.261       .  A
O1339      C1345   1.271       .  A
O1340      C1346   1.253       .  A
O1340     Co1355   1.963       .  S
O1341      C1344   1.302       .  A
O1342      C1343   1.278       .  A
O1342     Co1357   2.053   1_655  S
C1343      C1391   1.462       .  S
C1344      C1392   1.471       .  S
C1345      C1390   1.452       .  S
C1346      C1389   1.452       .  S
O1347      C1360   1.273       .  A
O1348      C1361   1.261       .  A
O1348     Co1356   2.010   1_556  S
O1349      C1362   1.252       .  A
O1350      C1363   1.265       .  A
O1351      C1363   1.302       .  A
O1352      C1362   1.279       .  A
O1352     Co1413   2.053   1_556  S
O1353      C1360   1.271       .  A
O1353     Co1358   1.976   1_655  S
O1354      C1361   1.254       .  A
Co1356     O1394   1.874       .  S
Co1356     O1525   2.132   1_554  S
Co1357     O1359   2.015   1_455  S
O1359     Co1529   2.017       .  S
O1359     Co1474   1.991   1_655  S
C1360      C1375   1.451       .  S
C1361      C1374   1.451       .  S
C1362      C1372   1.462       .  S
C1363      C1373   1.471       .  S
O1364      C1372   1.252       .  A
O1364     Co1384   1.959       .  S
O1365      C1373   1.265       .  A
O1365     Co1385   1.874       .  S
O1366      C1374   1.273       .  A
O1366     Co1386   2.013       .  S
O1367      C1375   1.260       .  A
O1367     Co1387   2.010       .  S
O1368      C1374   1.271       .  A
O1368     Co1385   1.976       .  S
O1369      C1375   1.254       .  A
O1369     Co1384   1.963       .  S
O1370      C1373   1.302       .  A
O1370     Co1387   2.132       .  S
O1371      C1372   1.278       .  A
O1371     Co1386   2.052       .  S
O1376      C1389   1.273       .  A
O1376     Co1384   2.013       .  S
O1377      C1390   1.260       .  A
O1377     Co1385   2.010       .  S
O1378      C1391   1.252       .  A
O1378     Co1386   1.959       .  S
O1379      C1392   1.265       .  A
O1379     Co1387   1.874       .  S
O1380      C1392   1.302       .  A
O1380     Co1385   2.133       .  S
O1381      C1391   1.278       .  A
O1381     Co1384   2.052       .  S
O1382      C1389   1.271       .  A
O1382     Co1387   1.976       .  S
O1383      C1390   1.254       .  A
O1383     Co1386   1.963       .  S
Co1384     O1388   2.017       .  S
Co1385     O1388   1.992       .  S
Co1386     O1388   2.017       .  S
Co1387     O1388   1.992       .  S
O1393      C1401   1.252       .  A
O1394      C1402   1.265       .  A
O1395      C1403   1.273       .  A
O1396      C1404   1.261       .  A
O1396     Co1532   2.011   1_654  S
O1397      C1403   1.271       .  A
O1397     Co1530   1.977   1_565  S
O1398      C1404   1.253       .  A
O1398     Co1413   1.963       .  S
O1399      C1402   1.302       .  A
O1400      C1401   1.278       .  A
O1400     Co1415   2.052   1_654  S
C1401      C1449   1.462       .  S
C1402      C1450   1.471       .  S
C1403      C1448   1.452       .  S
C1404      C1447   1.452       .  S
O1405      C1418   1.273       .  A
O1405     Co1471   2.013       .  S
O1406      C1419   1.261       .  A
O1406     Co1414   2.011   1_565  S
O1407      C1420   1.252       .  A
O1407     Co1473   1.959   1_655  S
O1408      C1421   1.265       .  A
O1409      C1421   1.302       .  A
O1410      C1420   1.279       .  A
O1411      C1418   1.271       .  A
O1411     Co1416   1.977   1_655  S
O1412      C1419   1.253       .  A
Co1413     O1521   2.014   1_554  S
Co1414     O1455   1.977   1_545  S
Co1415     O1523   1.959   1_455  S
Co1415     O1417   2.016   1_456  S
Co1416     O1454   2.012   1_455  S
C1418      C1433   1.452       .  S
C1419      C1432   1.452       .  S
C1420      C1430   1.462       .  S
C1421      C1431   1.471       .  S
O1422      C1430   1.252       .  A
O1422     Co1442   1.959       .  S
O1423      C1431   1.265       .  A
O1423     Co1443   1.874       .  S
O1424      C1432   1.273       .  A
O1424     Co1444   2.013       .  S
O1425      C1433   1.261       .  A
O1425     Co1445   2.011       .  S
O1426      C1432   1.271       .  A
O1426     Co1443   1.977       .  S
O1427      C1433   1.253       .  A
O1427     Co1442   1.963       .  S
O1428      C1431   1.302       .  A
O1428     Co1445   2.132       .  S
O1429      C1430   1.278       .  A
O1429     Co1444   2.052       .  S
O1434      C1447   1.273       .  A
O1434     Co1442   2.013       .  S
O1435      C1448   1.261       .  A
O1435     Co1443   2.011       .  S
O1436      C1449   1.252       .  A
O1436     Co1444   1.959       .  S
O1437      C1450   1.265       .  A
O1437     Co1445   1.874       .  S
O1438      C1450   1.302       .  A
O1438     Co1443   2.132       .  S
O1439      C1449   1.278       .  A
O1439     Co1442   2.052       .  S
O1440      C1447   1.271       .  A
O1440     Co1445   1.977       .  S
O1441      C1448   1.254       .  A
O1441     Co1444   1.963       .  S
Co1442     O1446   2.016       .  S
Co1443     O1446   1.991       .  S
Co1444     O1446   2.016       .  S
Co1445     O1446   1.991       .  S
O1451      C1459   1.252       .  A
O1452      C1460   1.265       .  A
O1453      C1461   1.273       .  A
O1454      C1462   1.261       .  A
O1455      C1461   1.271       .  A
O1456      C1462   1.253       .  A
O1456     Co1471   1.963       .  S
O1457      C1460   1.302       .  A
O1458      C1459   1.278       .  A
O1458     Co1473   2.053   1_655  S
C1459      C1507   1.462       .  S
C1460      C1508   1.470       .  S
C1461      C1506   1.452       .  S
C1462      C1505   1.452       .  S
O1463      C1476   1.273       .  A
O1463     Co1529   2.014       .  S
O1464      C1477   1.261       .  A
O1464     Co1472   2.011   1_565  S
O1465      C1478   1.252       .  A
O1465     Co1531   1.959   1_655  S
O1466      C1479   1.265       .  A
O1467      C1479   1.302       .  A
O1468      C1478   1.279       .  A
O1469      C1476   1.271       .  A
O1469     Co1474   1.976   1_655  S
O1470      C1477   1.253       .  A
Co1472     O1513   1.977   1_545  S
Co1473     O1475   2.017   1_455  S
Co1474     O1512   2.011   1_455  S
C1476      C1491   1.452       .  S
C1477      C1490   1.451       .  S
C1478      C1488   1.463       .  S
C1479      C1489   1.471       .  S
O1480      C1488   1.252       .  A
O1480     Co1500   1.959       .  S
O1481      C1489   1.265       .  A
O1481     Co1501   1.875       .  S
O1482      C1490   1.273       .  A
O1482     Co1502   2.013       .  S
O1483      C1491   1.261       .  A
O1483     Co1503   2.012       .  S
O1484      C1490   1.271       .  A
O1484     Co1501   1.976       .  S
O1485      C1491   1.253       .  A
O1485     Co1500   1.963       .  S
O1486      C1489   1.302       .  A
O1486     Co1503   2.132       .  S
O1487      C1488   1.279       .  A
O1487     Co1502   2.053       .  S
O1492      C1505   1.273       .  A
O1492     Co1500   2.014       .  S
O1493      C1506   1.261       .  A
O1493     Co1501   2.012       .  S
O1494      C1507   1.252       .  A
O1494     Co1502   1.958       .  S
O1495      C1508   1.265       .  A
O1495     Co1503   1.875       .  S
O1496      C1508   1.302       .  A
O1496     Co1501   2.131       .  S
O1497      C1507   1.278       .  A
O1497     Co1500   2.053       .  S
O1498      C1505   1.271       .  A
O1498     Co1503   1.976       .  S
O1499      C1506   1.253       .  A
O1499     Co1502   1.963       .  S
Co1500     O1504   2.017       .  S
Co1501     O1504   1.991       .  S
Co1502     O1504   2.016       .  S
Co1503     O1504   1.992       .  S
O1509      C1517   1.252       .  A
O1510      C1518   1.265       .  A
O1511      C1519   1.273       .  A
O1512      C1520   1.261       .  A
O1513      C1519   1.271       .  A
O1514      C1520   1.254       .  A
O1514     Co1529   1.963       .  S
O1515      C1518   1.302       .  A
O1516      C1517   1.279       .  A
O1516     Co1531   2.053   1_655  S
C1517      C1565   1.463       .  S
C1518      C1566   1.471       .  S
C1519      C1564   1.452       .  S
C1520      C1563   1.452       .  S
O1521      C1534   1.273       .  A
O1522      C1535   1.261       .  A
O1522     Co1530   2.011   1_566  S
O1523      C1536   1.252       .  A
O1524      C1537   1.265       .  A
O1525      C1537   1.302       .  A
O1526      C1536   1.278       .  A
O1527      C1534   1.271       .  A
O1527     Co1532   1.977   1_655  S
O1528      C1535   1.253       .  A
Co1531     O1533   2.016   1_455  S
C1534      C1549   1.452       .  S
C1535      C1548   1.452       .  S
C1536      C1546   1.462       .  S
C1537      C1547   1.471       .  S
O1538      C1546   1.252       .  A
O1538     Co1558   1.958       .  S
O1539      C1547   1.265       .  A
O1539     Co1559   1.874       .  S
O1540      C1548   1.273       .  A
O1540     Co1560   2.013       .  S
O1541      C1549   1.261       .  A
O1541     Co1561   2.012       .  S
O1542      C1548   1.271       .  A
O1542     Co1559   1.976       .  S
O1543      C1549   1.254       .  A
O1543     Co1558   1.963       .  S
O1544      C1547   1.302       .  A
O1544     Co1561   2.132       .  S
O1545      C1546   1.278       .  A
O1545     Co1560   2.053       .  S
O1550      C1563   1.273       .  A
O1550     Co1558   2.013       .  S
O1551      C1564   1.261       .  A
O1551     Co1559   2.011       .  S
O1552      C1565   1.252       .  A
O1552     Co1560   1.959       .  S
O1553      C1566   1.265       .  A
O1553     Co1561   1.874       .  S
O1554      C1566   1.302       .  A
O1554     Co1559   2.132       .  S
O1555      C1565   1.279       .  A
O1555     Co1558   2.053       .  S
O1556      C1563   1.271       .  A
O1556     Co1561   1.976       .  S
O1557      C1564   1.253       .  A
O1557     Co1560   1.963       .  S
Co1558     O1562   2.017       .  S
Co1559     O1562   1.992       .  S
Co1560     O1562   2.017       .  S
Co1561     O1562   1.991       .  S
