geometry optimzed in LAMMPS
_audit_creation_date              2020-11-30 
_audit_creation_method            'lammps2cif' 
_symmetry_space_group_name_H-M    'P1' 
_symmetry_Int_Tables_number       1 
_symmetry_cell_setting            triclinic 
loop_ 
_symmetry_equiv_pos_as_xyz 
  x,y,z 
_cell_length_a                    70.06005951 
_cell_length_b                    70.14519301536575 
_cell_length_c                    28.560276058258303 
_cell_angle_alpha                 89.97029898692925 
_cell_angle_beta                  89.99209761214168 
_cell_angle_gamma                 120.64951280902528 
loop_ 
_atom_site_label 
_atom_site_type_symbol 
_atom_site_fract_x 
_atom_site_fract_y 
_atom_site_fract_z 
_atom_site_charge 
In1        In  0.52544565  0.59776304  0.65840315     1.36900
C2          C  0.55594609  0.58666409  0.67429653     0.80700
O3          O  0.50175532  0.56917703  0.70401888    -0.57800
O4          O  0.49074895  0.57301154  0.63714353    -0.48700
C5          C  0.51883125  0.62605702  0.70768103     0.73300
O6          O  0.52824598  0.61643083  0.72485855    -0.43500
C7          C  0.53573399  0.61046165  0.57009117     0.78100
O8          O  0.55932920  0.60563685  0.68460979    -0.55400
O9          O  0.51901942  0.59238971  0.58199440    -0.45500
O10         O  0.53726354  0.57370664  0.65675540    -0.51800
C11         C  0.48635081  0.56184618  0.67422090     0.88200
O12         O  0.51399301  0.62225926  0.66502968    -0.53700
O13         O  0.54747269  0.62255681  0.60341030    -0.57000
In14       In  0.52689775  0.59874982  0.34209436     1.36900
C15         C  0.55776355  0.58816905  0.32719179     0.80700
O16         O  0.54852063  0.62326353  0.39792874    -0.57800
O17         O  0.51969490  0.59314243  0.41817140    -0.48700
C18         C  0.52066433  0.62692393  0.29163884     0.73300
O19         O  0.52976939  0.61692317  0.27490412    -0.43500
C20         C  0.48795657  0.56249980  0.32671691     0.78100
O21         O  0.56110852  0.60715469  0.31719163    -0.55400
O22         O  0.49223328  0.57387251  0.36342070    -0.45500
O23         O  0.53895367  0.57496251  0.34388114    -0.51800
C24         C  0.53639320  0.61105303  0.43076290     0.88200
O25         O  0.51591386  0.62352615  0.33440345    -0.53700
O26         O  0.50335619  0.56986781  0.29686823    -0.57000
In27       In  0.60002709  0.52356367  0.66155955     1.36900
C28         C  0.58877543  0.55402061  0.67617246     0.80700
O29         O  0.62439043  0.54506777  0.60556255    -0.57800
O30         O  0.59401474  0.51642617  0.58560984    -0.48700
C31         C  0.62859069  0.51693717  0.70998868     0.73300
O32         O  0.61938049  0.52674535  0.72731055    -0.43500
C33         C  0.56417564  0.48470189  0.67864432     0.78100
O34         O  0.60803233  0.55780588  0.68531315    -0.55400
O35         O  0.57501034  0.48895827  0.64110731    -0.45500
O36         O  0.57561029  0.53494943  0.66075065    -0.51800
C37         C  0.61200175  0.53302466  0.57288505     0.88200
O38         O  0.62432869  0.51182669  0.66755674    -0.53700
O39         O  0.57183535  0.50014671  0.70835185    -0.57000
In40       In  0.60000114  0.52407061  0.34460103     1.36900
C41         C  0.58991469  0.55517330  0.32799227     0.80700
O42         O  0.57157067  0.50022074  0.29897703    -0.57800
O43         O  0.57550300  0.48941689  0.36608884    -0.48700
C44         C  0.62801186  0.51740880  0.29459626     0.73300
O45         O  0.61930205  0.52792885  0.27854140    -0.43500
C46         C  0.61174564  0.53336000  0.43347840     0.78100
O47         O  0.60947566  0.55901657  0.32350574    -0.55400
O48         O  0.59290742  0.51812716  0.42071803    -0.45500
O49         O  0.57585619  0.53571200  0.33989159    -0.51800
C50         C  0.56441483  0.48484143  0.32885196     0.88200
O51         O  0.62347933  0.51150503  0.33661268    -0.53700
O52         O  0.62498151  0.54419632  0.40079672    -0.57000
In53       In  0.39266229  0.46384936  0.66166702     1.36900
C54         C  0.40345469  0.43319408  0.67765805     0.80700
O55         O  0.36831244  0.44185735  0.60618969    -0.57800
O56         O  0.39827868  0.47086408  0.58558316    -0.48700
C57         C  0.36463871  0.47031493  0.71240602     0.73300
O58         O  0.37631982  0.46324882  0.73006883    -0.43500
C59         C  0.42835154  0.50332142  0.67544654     0.78100
O60         O  0.38445601  0.42988462  0.68769034    -0.55400
O61         O  0.41631074  0.49877590  0.63967203    -0.45500
O62         O  0.41658082  0.45187500  0.66034625    -0.51800
C63         C  0.38041308  0.45400271  0.57323464     0.88200
O64         O  0.36609501  0.47261143  0.66868672    -0.53700
O65         O  0.42203846  0.48786432  0.70486420    -0.57000
In66       In  0.39350858  0.46551849  0.34604235     1.36900
C67         C  0.40412868  0.43482657  0.32845883     0.80700
O68         O  0.42153849  0.48887560  0.29877057    -0.57800
O69         O  0.41957312  0.49966649  0.36731350    -0.48700
C70         C  0.36536868  0.47323608  0.29886349     0.73300
O71         O  0.37289357  0.46176130  0.28213253    -0.43500
C72         C  0.38075434  0.45477372  0.43418058     0.78100
O73         O  0.38501432  0.43150961  0.31969002    -0.55400
O74         O  0.39911356  0.47116501  0.42256159    -0.45500
O75         O  0.41748428  0.45356988  0.34515041    -0.51800
C76         C  0.42988849  0.50406396  0.32904284     0.88200
O77         O  0.37127858  0.47976808  0.34014585    -0.53700
O78         O  0.36838908  0.44359317  0.40067293    -0.57000
In79       In  0.46733678  0.39072201  0.65979336     1.36900
C80         C  0.43635816  0.40091421  0.67736072     0.80700
O81         O  0.49042087  0.41881073  0.70694295    -0.57800
O82         O  0.50203670  0.41592392  0.63990518    -0.48700
C83         C  0.47459582  0.36257576  0.70771109     0.73300
O84         O  0.46279052  0.36988013  0.72371895    -0.43500
C85         C  0.45758878  0.37910718  0.57092924     0.78100
O86         O  0.43273677  0.38153278  0.68365161    -0.55400
O87         O  0.47274037  0.39796487  0.58365849    -0.45500
O88         O  0.45552754  0.41470492  0.66323217    -0.51800
C89         C  0.50605154  0.42660767  0.67758364     0.88200
O90         O  0.48160872  0.36865769  0.66673966    -0.53700
O91         O  0.44708520  0.36573916  0.60363919    -0.57000
In92       In  0.46703960  0.39093942  0.34258903     1.36900
C93         C  0.43644966  0.40182917  0.32591919     0.80700
O94         O  0.44803488  0.36548994  0.39890255    -0.57800
O95         O  0.47128543  0.39866144  0.41865361    -0.48700
C96         C  0.47311409  0.36275351  0.29175795     0.73300
O97         O  0.46208427  0.37111900  0.27668763    -0.43500
C98         C  0.50657023  0.42626546  0.32780696     0.78100
O99         O  0.43191945  0.38198450  0.32353096    -0.55400
O100        O  0.50192742  0.41473475  0.36445840    -0.45500
O101        O  0.45632298  0.41570089  0.33527227    -0.51800
C102        C  0.45737260  0.37930273  0.43150390     0.88200
O103        O  0.47993095  0.36783564  0.33312972    -0.53700
O104        O  0.49125151  0.41945620  0.29786235    -0.57000
In105      In  0.92237067  0.52391210  0.66047252     1.36900
C106        C  0.96463388  0.55395848  0.67628294     0.80700
O107        O  0.92596783  0.49991155  0.70670094    -0.57800
O108        O  0.91213843  0.48942397  0.63863421    -0.48700
C109        C  0.88765539  0.51732987  0.71093770     0.73300
O110        O  0.90722990  0.52862928  0.72606977    -0.43500
C111        C  0.91990678  0.53446397  0.57239338     0.78100
O112        O  0.94936102  0.55806717  0.68402583    -0.55400
O113        O  0.92256722  0.51866975  0.58377139    -0.45500
O114        O  0.95825639  0.53474847  0.66165195    -0.51800
C115        C  0.91813546  0.48474026  0.67635308     0.88200
O116        O  0.88596370  0.51049674  0.66961604    -0.53700
O117        O  0.91829028  0.54515631  0.60610052    -0.57000
In118      In  0.92144425  0.52499488  0.34458486     1.36900
C119        C  0.96371561  0.55530860  0.32898560     0.80700
O120        O  0.92057740  0.54751860  0.40039189    -0.57800
O121        O  0.91868796  0.51741520  0.42066240    -0.48700
C122        C  0.88616098  0.51842843  0.29586680     0.73300
O123        O  0.90538220  0.52804881  0.27858925    -0.43500
C124        C  0.91786027  0.48612071  0.32778496     0.78100
O125        O  0.94829571  0.55904161  0.31981855    -0.55400
O126        O  0.91197199  0.49062998  0.36580862    -0.45500
O127        O  0.95749375  0.53637966  0.34526001    -0.51800
C128        C  0.91922728  0.53485108  0.43322940     0.88200
O129        O  0.88517845  0.51350794  0.33844064    -0.53700
O130        O  0.92537753  0.50136112  0.29756069    -0.57000
In131      In  0.07228373  0.59722585  0.65820869     1.36900
C132        C  0.03062644  0.58622485  0.67491832     0.80700
O133        O  0.07642453  0.62266243  0.60415974    -0.57800
O134        O  0.07241081  0.59188953  0.58168833    -0.48700
C135        C  0.10761549  0.62517779  0.70767261     0.73300
O136        O  0.08836236  0.61557477  0.72480100    -0.43500
C137        C  0.07554134  0.56174306  0.67343550     0.78100
O138        O  0.04660748  0.60543205  0.68346696    -0.55400
O139        O  0.08135728  0.57238215  0.63552006    -0.45500
O140        O  0.03599974  0.57295032  0.65882903    -0.51800
C141        C  0.07499506  0.61039297  0.57043566     0.88200
O142        O  0.10865988  0.62156835  0.66492974    -0.53700
O143        O  0.06816623  0.56925432  0.70408708    -0.57000
In144      In  0.07153127  0.59839234  0.34324423     1.36900
C145        C  0.02978034  0.58753841  0.32724261     0.80700
O146        O  0.06819202  0.57072470  0.29734625    -0.57800
O147        O  0.08085877  0.57377135  0.36639069    -0.48700
C148        C  0.10653496  0.62661372  0.29306823     0.73300
O149        O  0.08713395  0.61725690  0.27672660    -0.43500
C150        C  0.07439280  0.61082496  0.43162986     0.78100
O151        O  0.04567097  0.60710645  0.32170827    -0.55400
O152        O  0.07009293  0.59181315  0.41952376    -0.45500
O153        O  0.03531088  0.57383105  0.33947051    -0.51800
C154        C  0.07537868  0.56319837  0.32841127     0.88200
O155        O  0.10789729  0.62258714  0.33542542    -0.53700
O156        O  0.07733761  0.62393843  0.39847472    -0.57000
In157      In  0.92206463  0.39209997  0.66068279     1.36900
C158        C  0.96409097  0.40387750  0.67721216     0.80700
O159        O  0.91791769  0.36738921  0.60466836    -0.57800
O160        O  0.92330173  0.39896649  0.58452819    -0.48700
C161        C  0.88656249  0.36323990  0.70930227     0.73300
O162        O  0.90581603  0.37260588  0.72644951    -0.43500
C163        C  0.91797895  0.42705238  0.67665931     0.78100
O164        O  0.94836271  0.38438632  0.68482770    -0.55400
O165        O  0.91109731  0.41572595  0.63977363    -0.45500
O166        O  0.95825304  0.41702673  0.66256058    -0.51800
C167        C  0.92009671  0.38040511  0.57185095     0.88200
O168        O  0.88563179  0.36751452  0.66693121    -0.53700
O169        O  0.92661059  0.42034016  0.70621093    -0.57000
In170      In  0.92120320  0.39317261  0.34423992     1.36900
C171        C  0.96321888  0.40486285  0.32888654     0.80700
O172        O  0.92600680  0.42145503  0.29854751    -0.57800
O173        O  0.91032811  0.41697541  0.36474619    -0.48700
C174        C  0.88618710  0.36455648  0.29450414     0.73300
O175        O  0.90539944  0.37499593  0.27719810    -0.43500
C176        C  0.91908485  0.38077482  0.43258204     0.78100
O177        O  0.94747356  0.38561647  0.31949577    -0.55400
O178        O  0.92168081  0.39922335  0.42070986    -0.45500
O179        O  0.95741876  0.41781732  0.34490884    -0.51800
C180        C  0.91738704  0.42828474  0.32780627     0.88200
O181        O  0.88509071  0.36762816  0.33753448    -0.53700
O182        O  0.91721603  0.36814769  0.39922018    -0.57000
In183      In  0.07287956  0.46574156  0.65772372     1.36900
C184        C  0.03041407  0.43620157  0.67470593     0.80700
O185        O  0.06884981  0.48938472  0.70431920    -0.57800
O186        O  0.08266562  0.50017297  0.63635775    -0.48700
C187        C  0.10839239  0.47246569  0.70558983     0.73300
O188        O  0.08908190  0.46163362  0.72229217    -0.43500
C189        C  0.07496295  0.45480261  0.56988000     0.78100
O190        O  0.04568500  0.43245944  0.68546262    -0.55400
O191        O  0.07472845  0.47198495  0.58119875    -0.45500
O192        O  0.03688163  0.45472593  0.65598161    -0.51800
C193        C  0.07642534  0.50459210  0.67402856     0.88200
O194        O  0.10942287  0.47871790  0.66397281    -0.53700
O195        O  0.07426380  0.44283194  0.60356554    -0.57000
In196      In  0.07215449  0.46675349  0.34447995     1.36900
C197        C  0.02953886  0.43720506  0.32979923     0.80700
O198        O  0.07364264  0.44340092  0.39727095    -0.57800
O199        O  0.07537212  0.47299526  0.42098863    -0.48700
C200        C  0.10721489  0.47330643  0.29525456     0.73300
O201        O  0.08784882  0.46301970  0.27872609    -0.43500
C202        C  0.07576556  0.50572995  0.32872472     0.78100
O203        O  0.04469920  0.43373692  0.31660036    -0.55400
O204        O  0.08146607  0.50097613  0.36670677    -0.45500
O205        O  0.03617407  0.45549656  0.34971801    -0.51800
C206        C  0.07506862  0.45543949  0.43145553     0.88200
O207        O  0.10850540  0.47912056  0.33727968    -0.53700
O208        O  0.06854848  0.49074482  0.29801206    -0.57000
In209      In  0.46471139  0.66139680  0.16466293     1.36900
C210        C  0.47040347  0.66712755  0.07277121     0.80700
O211        O  0.44047792  0.62584022  0.14683634    -0.57800
O212        O  0.43327811  0.63961987  0.20561659    -0.48700
C213        C  0.49226161  0.65367135  0.21379303     0.73300
O214        O  0.49009753  0.65102064  0.17019185    -0.43500
C215        C  0.46699146  0.69958406  0.18469166     0.78100
O216        O  0.48632985  0.67208154  0.10023950    -0.55400
O217        O  0.44890177  0.68152178  0.18188491    -0.45500
O218        O  0.45179430  0.65967646  0.09213766    -0.51800
C219        C  0.42727255  0.62299818  0.17961182     0.88200
O220        O  0.48081026  0.66079295  0.23242514    -0.53700
O221        O  0.48403640  0.69817573  0.17895723    -0.57000
In222      In  0.46307009  0.79239000  0.16624246     1.36900
C223        C  0.46809858  0.79221053  0.07408470     0.80700
O224        O  0.48309638  0.77603735  0.18055459    -0.57800
O225        O  0.44797667  0.75618739  0.18260779    -0.48700
C226        C  0.49010283  0.82706148  0.21883520     0.73300
O227        O  0.48996998  0.82795551  0.17485005    -0.43500
C228        C  0.42605608  0.79348947  0.17987421     0.78100
O229        O  0.48378303  0.80496875  0.10074818    -0.55400
O230        O  0.43053024  0.78103461  0.20329662    -0.45500
O231        O  0.44998555  0.77954694  0.09432389    -0.51800
C232        C  0.46629563  0.75702369  0.18557729     0.88200
O233        O  0.47700251  0.80829586  0.23615334    -0.53700
O234        O  0.44051902  0.80553087  0.15022812    -0.57000
In235      In  0.46462875  0.66151713  0.83878980     1.36900
C236        C  0.47042219  0.66702551  0.93076631     0.80700
O237        O  0.48469453  0.69829151  0.82468387    -0.57800
O238        O  0.44957925  0.68234969  0.82208369    -0.48700
C239        C  0.49115351  0.65343725  0.78657371     0.73300
O240        O  0.49005086  0.65132440  0.83036865    -0.43500
C241        C  0.42692449  0.62325196  0.82548688     0.78100
O242        O  0.48611503  0.67098346  0.90337285    -0.55400
O243        O  0.43195388  0.64029512  0.80160404    -0.45500
O244        O  0.45201256  0.66057732  0.91132090    -0.51800
C245        C  0.46790103  0.70017514  0.81924652     0.88200
O246        O  0.47924289  0.66033243  0.76924673    -0.53700
O247        O  0.44118536  0.62563607  0.85533815    -0.57000
In248      In  0.46534221  0.79358230  0.83964506     1.36900
C249        C  0.42823822  0.79477785  0.82745645     0.80700
O250        O  0.45123421  0.78060073  0.91080766    -0.57800
O251        O  0.48561293  0.80457936  0.90595087    -0.48700
C252        C  0.46833831  0.75818621  0.81924345     0.73300
O253        O  0.45025446  0.75791990  0.81827825    -0.43500
C254        C  0.49262403  0.82868957  0.78798236     0.78100
O255        O  0.43261566  0.78240150  0.80345077    -0.55400
O256        O  0.49179769  0.82944544  0.83187913    -0.45500
O257        O  0.44289087  0.80675759  0.85681146    -0.51800
C258        C  0.46930867  0.79238608  0.93189007     0.88200
O259        O  0.48509793  0.77670004  0.82869861    -0.53700
O260        O  0.48012149  0.80987498  0.77032585    -0.57000
In261      In  0.19783096  0.52795080  0.16429719     1.36900
C262        C  0.19840221  0.52353197  0.07212926     0.80700
O263        O  0.18481263  0.55059263  0.14774129    -0.57800
O264        O  0.20936560  0.56073251  0.20064304    -0.48700
C265        C  0.16280952  0.50091738  0.21632409     0.73300
O266        O  0.16194854  0.50169831  0.17244538    -0.43500
C267        C  0.23300051  0.52420957  0.18377241     0.78100
O268        O  0.18549783  0.50769090  0.09833179    -0.55400
O269        O  0.23364920  0.54246397  0.18454816    -0.45500
O270        O  0.21112664  0.54145180  0.09287631    -0.51800
C271        C  0.19690172  0.56517030  0.17707690     0.88200
O272        O  0.18171272  0.51332015  0.23382271    -0.53700
O273        O  0.21422671  0.50766093  0.17495959    -0.57000
In274      In  0.32980009  0.52725900  0.16738903     1.36900
C275        C  0.32490067  0.52202980  0.07530234     0.80700
O276        O  0.29285165  0.50720092  0.18082843    -0.57800
O277        O  0.30874637  0.54227240  0.18235551    -0.48700
C278        C  0.33754472  0.50070705  0.22032240     0.73300
O279        O  0.33935657  0.50139292  0.17644539    -0.43500
C280        C  0.36844081  0.56461905  0.18085892     0.78100
O281        O  0.32183386  0.50645449  0.10217103    -0.55400
O282        O  0.35162509  0.55944880  0.20575529    -0.45500
O283        O  0.33015326  0.54001949  0.09534443    -0.51800
C284        C  0.29087960  0.52398160  0.18514622     0.88200
O285        O  0.33089148  0.51287691  0.23730665    -0.53700
O286        O  0.36563608  0.55066691  0.14991899    -0.57000
In287      In  0.19869942  0.52732178  0.83755549     1.36900
C288        C  0.19844462  0.56475623  0.82356271     0.80700
O289        O  0.18304121  0.51245047  0.76778178    -0.57800
O290        O  0.16271010  0.50148094  0.82842087    -0.48700
C291        C  0.23400325  0.52355086  0.82027400     0.73300
O292        O  0.23458524  0.54175123  0.81800880    -0.43500
C293        C  0.19869624  0.52320928  0.92990284     0.78100
O294        O  0.21070955  0.55994620  0.80029913    -0.55400
O295        O  0.18638717  0.50710349  0.90369391    -0.45500
O296        O  0.18617844  0.55041769  0.85318892    -0.51800
C297        C  0.16393408  0.50037412  0.78468443     0.88200
O298        O  0.21524386  0.50706309  0.82948804    -0.53700
O299        O  0.21107739  0.54121700  0.90907830    -0.57000
In300      In  0.33060387  0.52658720  0.84100615     1.36900
C301        C  0.32528623  0.52187137  0.93312941     0.80700
O302        O  0.36625791  0.55088365  0.85795273    -0.57800
O303        O  0.35172450  0.55849602  0.80116406    -0.48700
C304        C  0.33850148  0.49937446  0.79074043     0.73300
O305        O  0.34207611  0.50206967  0.83404391    -0.43500
C306        C  0.29178911  0.52320118  0.82184161     0.78100
O307        O  0.32147117  0.50594680  0.90667052    -0.55400
O308        O  0.30984332  0.54138233  0.82119359    -0.45500
O309        O  0.33150043  0.54000272  0.91266515    -0.51800
C310        C  0.36862247  0.56438944  0.82627315     0.88200
O311        O  0.33036480  0.51010457  0.77299933    -0.53700
O312        O  0.29349742  0.50652879  0.83046931    -0.57000
In313      In  0.33034536  0.79323661  0.16618189     1.36900
C314        C  0.32565219  0.79256658  0.07380618     0.80700
O315        O  0.36595411  0.80526813  0.14882166    -0.57800
O316        O  0.35136946  0.78248105  0.20505420    -0.48700
C317        C  0.33912853  0.82864833  0.21658855     0.73300
O318        O  0.33916987  0.82872250  0.17255013    -0.43500
C319        C  0.29075476  0.75816896  0.18548955     0.78100
O320        O  0.32353565  0.80595726  0.09953982    -0.55400
O321        O  0.30814229  0.75717295  0.18321477    -0.45500
O322        O  0.32991247  0.77946269  0.09510384    -0.51800
C323        C  0.36827381  0.79394531  0.18003365     0.88200
O324        O  0.33389614  0.81031785  0.23516456    -0.53700
O325        O  0.29357950  0.77725460  0.18020733    -0.57000
In326      In  0.19681005  0.66083765  0.16270568     1.36900
C327        C  0.19777993  0.66571192  0.07043028     0.80700
O328        O  0.21361648  0.69789469  0.17226625    -0.57800
O329        O  0.23242153  0.68236529  0.18428783    -0.48700
C330        C  0.16183525  0.65319047  0.21370705     0.73300
O331        O  0.16090960  0.65064543  0.17003949    -0.43500
C332        C  0.19611979  0.62284665  0.17673409     0.78100
O333        O  0.18465263  0.66830097  0.09608970    -0.55400
O334        O  0.20801367  0.63993954  0.20082374    -0.45500
O335        O  0.21052774  0.66095847  0.09175289    -0.51800
C336        C  0.23211045  0.70012206  0.18262661     0.88200
O337        O  0.18069799  0.66015812  0.23147260    -0.53700
O338        O  0.18426500  0.62496902  0.14650847    -0.57000
In339      In  0.33174147  0.79375530  0.83931919     1.36900
C340        C  0.32597185  0.79248277  0.93146761     0.80700
O341        O  0.29462425  0.77647823  0.82916441    -0.57800
O342        O  0.31071996  0.75831574  0.81595228    -0.48700
C343        C  0.34011525  0.82907449  0.78848800     0.73300
O344        O  0.34248205  0.82979737  0.83218806    -0.43500
C345        C  0.37010262  0.79486783  0.82738912     0.78100
O346        O  0.32324939  0.80538911  0.90538157    -0.55400
O347        O  0.35324986  0.78287475  0.80268557    -0.45500
O348        O  0.33119164  0.77998928  0.91059895    -0.51800
C349        C  0.29273438  0.75821851  0.81809623     0.88200
O350        O  0.33280544  0.81020517  0.77058905    -0.53700
O351        O  0.36752193  0.80650473  0.85735478    -0.57000
In352      In  0.19867552  0.66047506  0.83627665     1.36900
C353        C  0.19873756  0.66567950  0.92826500     0.80700
O354        O  0.18693397  0.62497371  0.85381884    -0.57800
O355        O  0.20958670  0.63953069  0.79738688    -0.48700
C356        C  0.16334813  0.65198892  0.78576391     0.73300
O357        O  0.16241402  0.64863359  0.82914471    -0.43500
C358        C  0.23441138  0.69963463  0.81701037     0.78100
O359        O  0.18676165  0.66938149  0.90130780    -0.55400
O360        O  0.23466318  0.68182761  0.81666211    -0.45500
O361        O  0.21088943  0.65974053  0.90834858    -0.51800
C362        C  0.19827226  0.62267347  0.82261527     0.88200
O363        O  0.18238746  0.66017006  0.76800193    -0.53700
O364        O  0.21577067  0.69747862  0.82541880    -0.57000
In365      In  0.52788626  0.32747756  0.16251732     1.36900
C366        C  0.52365378  0.32237440  0.07016614     0.80700
O367        O  0.55062139  0.36370005  0.14800737    -0.57800
O368        O  0.56065214  0.34863400  0.19930318    -0.48700
C369        C  0.50061084  0.33529458  0.21279196     0.73300
O370        O  0.50210421  0.33734354  0.16899390    -0.43500
C371        C  0.52505571  0.28905498  0.18294297     0.78100
O372        O  0.50724057  0.31679782  0.09659709    -0.55400
O373        O  0.54324690  0.30704649  0.18069915    -0.45500
O374        O  0.54199755  0.33018127  0.09075637    -0.51800
C375        C  0.56525572  0.36590397  0.17667342     0.88200
O376        O  0.51247127  0.32855370  0.23106954    -0.53700
O377        O  0.50814389  0.29065663  0.17664126    -0.57000
In378      In  0.52869492  0.19598142  0.16530308     1.36900
C379        C  0.56591725  0.19533496  0.17973515     0.80700
O380        O  0.51319783  0.17961280  0.23417431    -0.57800
O381        O  0.50312620  0.15981071  0.17282591    -0.48700
C382        C  0.52536571  0.23134669  0.18417045     0.73300
O383        O  0.54355259  0.23181572  0.18520987    -0.43500
C384        C  0.52458713  0.19674771  0.07308976     0.78100
O385        O  0.56093582  0.20727008  0.20370688    -0.55400
O386        O  0.50836132  0.18453880  0.09919954    -0.45500
O387        O  0.55189687  0.18367329  0.14905682    -0.51800
C388        C  0.50158682  0.16061751  0.21655779     0.88200
O389        O  0.50868465  0.21266066  0.17544498    -0.53700
O390        O  0.54270420  0.20865261  0.09395818    -0.57000
In391      In  0.52990614  0.32733693  0.83576768     1.36900
C392        C  0.52457453  0.32227579  0.92793860     0.80700
O393        O  0.50998892  0.29042951  0.82268769    -0.57800
O394        O  0.54507488  0.30661384  0.81878845    -0.48700
C395        C  0.50291310  0.33544266  0.78520407     0.73300
O396        O  0.50486468  0.33813687  0.82881652    -0.43500
C397        C  0.56778820  0.36535373  0.82117107     0.78100
O398        O  0.50861224  0.31745882  0.90066982    -0.55400
O399        O  0.56194681  0.34847633  0.79608829    -0.45500
O400        O  0.54304357  0.32927267  0.90826311    -0.51800
C401        C  0.52682912  0.28868143  0.81669486     0.88200
O402        O  0.51425997  0.32804186  0.76724311    -0.53700
O403        O  0.55417063  0.36297097  0.85264073    -0.57000
In404      In  0.53059419  0.19597521  0.83911859     1.36900
C405        C  0.56767356  0.19481413  0.82610697     0.80700
O406        O  0.54369680  0.20916980  0.91077867    -0.57800
O407        O  0.50969624  0.18424111  0.90440614    -0.48700
C408        C  0.52722041  0.23108987  0.81775834     0.73300
O409        O  0.54556644  0.23194302  0.82031673    -0.43500
C410        C  0.50347658  0.16059607  0.78849901     0.78100
O411        O  0.56310788  0.20701217  0.80196045    -0.55400
O412        O  0.50450172  0.16003420  0.83239692    -0.45500
O413        O  0.55331357  0.18312823  0.85623577    -0.51800
C414        C  0.52547980  0.19685751  0.93100465     0.88200
O415        O  0.51047048  0.21216769  0.82417792    -0.53700
O416        O  0.51574812  0.17935798  0.77029320    -0.57000
In417      In  0.79477816  0.32904667  0.16708070     1.36900
C418        C  0.79572636  0.36713667  0.18115564     0.80700
O419        O  0.81128936  0.32882910  0.23469760    -0.57800
O420        O  0.83111591  0.34097872  0.17347407    -0.48700
C421        C  0.75896249  0.29017322  0.18746170     0.73300
O422        O  0.75879344  0.30802209  0.18677858    -0.43500
C423        C  0.79422226  0.32341608  0.07507739     0.78100
O424        O  0.78515587  0.35062444  0.20767218    -0.55400
O425        O  0.80707668  0.32082845  0.10165513    -0.45500
O426        O  0.80600450  0.36433651  0.14832426    -0.51800
C427        C  0.83031462  0.33729390  0.21671426     0.88200
O428        O  0.77756482  0.29214806  0.17947583    -0.53700
O429        O  0.78137797  0.32834658  0.09541246    -0.57000
In430      In  0.66174389  0.19571448  0.16737362     1.36900
C431        C  0.66772207  0.19598777  0.07541506     0.80700
O432        O  0.62609133  0.18350958  0.15001184    -0.57800
O433        O  0.64061234  0.20641056  0.20603592    -0.48700
C434        C  0.65262783  0.16004229  0.21752495     0.73300
O435        O  0.65161586  0.15980901  0.17354411    -0.43500
C436        C  0.70050287  0.23177081  0.18781911     0.78100
O437        O  0.67250583  0.18501678  0.10297659    -0.55400
O438        O  0.68293222  0.23219854  0.18214449    -0.45500
O439        O  0.66015130  0.20688801  0.09467297    -0.51800
C440        C  0.62371892  0.19487620  0.18104047     0.88200
O441        O  0.65890566  0.17860415  0.23609663    -0.53700
O442        O  0.69826629  0.21283285  0.18500432    -0.57000
In443      In  0.79633564  0.32867518  0.84043407     1.36900
C444        C  0.79532391  0.32380294  0.93279295     0.80700
O445        O  0.80983939  0.36471258  0.85660051    -0.57800
O446        O  0.78539069  0.35001737  0.80344813    -0.48700
C447        C  0.83091074  0.33606317  0.78809620     0.73300
O448        O  0.83196817  0.33804434  0.83191922    -0.43500
C449        C  0.76077597  0.28941803  0.82141963     0.78100
O450        O  0.80837276  0.32108430  0.90712830    -0.55400
O451        O  0.76054346  0.30722145  0.81969578    -0.45500
O452        O  0.78277097  0.32881397  0.91145895    -0.51800
C453        C  0.79789459  0.36710108  0.82704766     0.88200
O454        O  0.81204472  0.32961590  0.77081903    -0.53700
O455        O  0.77932550  0.29161443  0.83106330    -0.57000
In456      In  0.66346438  0.19510542  0.84101935     1.36900
C457        C  0.66872278  0.19587066  0.93326524     0.80700
O458        O  0.70042968  0.21219825  0.82914293    -0.57800
O459        O  0.68464274  0.23104978  0.82173949    -0.48700
C460        C  0.65521131  0.15990912  0.79030483     0.73300
O461        O  0.65210431  0.15897802  0.83380805    -0.43500
C462        C  0.62542659  0.19418607  0.82645882     0.78100
O463        O  0.67253610  0.18379214  0.90691761    -0.55400
O464        O  0.64258456  0.20619307  0.80252460    -0.45500
O465        O  0.66261666  0.20771289  0.91262307    -0.51800
C466        C  0.70248709  0.23083132  0.82139020     0.88200
O467        O  0.66316514  0.17892050  0.77259047    -0.53700
O468        O  0.62755005  0.18241723  0.85687732    -0.57000
In469      In  0.79462791  0.46217547  0.16733952     1.36900
C470        C  0.79379225  0.46572103  0.07471400     0.80700
O471        O  0.80715480  0.43917913  0.15040601    -0.57800
O472        O  0.78387458  0.43005879  0.20578053    -0.48700
C473        C  0.83004945  0.48977937  0.21819444     0.73300
O474        O  0.83049394  0.48901134  0.17425440    -0.43500
C475        C  0.75896973  0.46517933  0.18668018     0.78100
O476        O  0.80637001  0.48194053  0.10040840    -0.55400
O477        O  0.75877855  0.44716779  0.18825139    -0.45500
O478        O  0.78146619  0.44788879  0.09619743    -0.51800
C479        C  0.79568393  0.42512419  0.18121903     0.88200
O480        O  0.81136819  0.47709296  0.23634555    -0.53700
O481        O  0.77754120  0.48188966  0.17723628    -0.57000
In482      In  0.66243107  0.46213646  0.16421426     1.36900
C483        C  0.66856194  0.46749309  0.07230326     0.80700
O484        O  0.69945813  0.48182653  0.17586589    -0.57800
O485        O  0.68274879  0.44695523  0.18521621    -0.48700
C486        C  0.65449666  0.48910963  0.21517522     0.73300
O487        O  0.65074449  0.48644129  0.17193287    -0.43500
C488        C  0.62395742  0.42448642  0.17671910     0.78100
O489        O  0.67220514  0.48327084  0.09908717    -0.55400
O490        O  0.64057825  0.42990727  0.20241883    -0.45500
O491        O  0.66222111  0.44925283  0.09238880    -0.51800
C492        C  0.70091636  0.46504739  0.18496530     0.88200
O493        O  0.66283382  0.47848750  0.23249611    -0.53700
O494        O  0.62684332  0.43834699  0.14545060    -0.57000
In495      In  0.79637493  0.46204671  0.83974887     1.36900
C496        C  0.79457948  0.46562433  0.93216094     0.80700
O497        O  0.78004960  0.48224442  0.82688771    -0.57800
O498        O  0.76063540  0.44735221  0.81877352    -0.48700
C499        C  0.83195646  0.48952644  0.78957759     0.73300
O500        O  0.83216762  0.48896152  0.83358164    -0.43500
C501        C  0.79782716  0.42514750  0.82673426     0.78100
O502        O  0.80757892  0.48176495  0.90671315    -0.55400
O503        O  0.78545597  0.42956451  0.80276666    -0.45500
O504        O  0.78235574  0.44782965  0.91053716    -0.51800
C505        C  0.76127672  0.46560123  0.81856699     0.88200
O506        O  0.81341208  0.47670769  0.77102750    -0.53700
O507        O  0.80963755  0.43963528  0.85649518    -0.57000
In508      In  0.66429273  0.46180936  0.83799884     1.36900
C509        C  0.66930727  0.46728200  0.93014502     0.80700
O510        O  0.62881082  0.43691341  0.85511046    -0.57800
O511        O  0.64331973  0.43017613  0.79699342    -0.48700
C512        C  0.65586502  0.48860096  0.78738434     0.73300
O513        O  0.65256394  0.48611464  0.83081191    -0.43500
C514        C  0.70326008  0.46538783  0.81922060     0.78100
O515        O  0.67337197  0.48303180  0.90285519    -0.55400
O516        O  0.68547716  0.44702740  0.82207095    -0.45500
O517        O  0.66307958  0.44897987  0.91049384    -0.51800
C518        C  0.62645726  0.42383133  0.82252634     0.88200
O519        O  0.66403737  0.47789642  0.76966026    -0.53700
O520        O  0.70120478  0.48207019  0.82447469    -0.57000
In521      In  0.52752032  0.91932004  0.65940919     1.36900
C522        C  0.55775210  0.96170977  0.67461274     0.80700
O523        O  0.54919824  0.91564383  0.60546154    -0.57800
O524        O  0.52166126  0.91815957  0.58277057    -0.48700
C525        C  0.52061024  0.88419216  0.70880145     0.73300
O526        O  0.53177594  0.90362217  0.72464352    -0.43500
C527        C  0.48869407  0.91601162  0.67611859     0.78100
O528        O  0.56136541  0.94635959  0.68522775    -0.55400
O529        O  0.49310317  0.90993510  0.63820923    -0.45500
O530        O  0.53902475  0.95536121  0.65702033    -0.51800
C531        C  0.53792338  0.91619243  0.57163229     0.88200
O532        O  0.51404933  0.88283613  0.66733131    -0.53700
O533        O  0.50390939  0.92333604  0.70638985    -0.57000
In534      In  0.52655856  0.91846251  0.34564973     1.36900
C535        C  0.55661716  0.96070497  0.32831943     0.80700
O536        O  0.50188692  0.92060503  0.29847818    -0.57800
O537        O  0.49364143  0.91238432  0.37023407    -0.48700
C538        C  0.51874614  0.88269737  0.29755854     0.73300
O539        O  0.52958909  0.90192254  0.28057714    -0.43500
C540        C  0.53745312  0.91543181  0.43303058     0.78100
O541        O  0.56018039  0.94528662  0.31814708    -0.55400
O542        O  0.51975468  0.91473552  0.42199317    -0.45500
O543        O  0.53804121  0.95449587  0.34654105    -0.51800
C544        C  0.48797908  0.91597079  0.33092154     0.88200
O545        O  0.51299166  0.88184184  0.33953093    -0.53700
O546        O  0.54988566  0.91731626  0.39920896    -0.57000
In547      In  0.59990189  0.06940116  0.66095863     1.36900
C548        C  0.58951129  0.02777242  0.67652539     0.80700
O549        O  0.57058043  0.06364392  0.70438565    -0.57800
O550        O  0.57693807  0.08122772  0.64008819    -0.48700
C551        C  0.62814649  0.10431475  0.71155838     0.73300
O552        O  0.61761711  0.08507746  0.72861633    -0.43500
C553        C  0.61098617  0.07140419  0.57174204     0.78100
O554        O  0.60894733  0.04382238  0.68303276    -0.55400
O555        O  0.59237658  0.06790865  0.58511568    -0.45500
O556        O  0.57572460  0.03309882  0.66356016    -0.51800
C557        C  0.56470889  0.07331068  0.67557647     0.88200
O558        O  0.62538312  0.10547941  0.66841500    -0.53700
O559        O  0.62442936  0.07409603  0.60403197    -0.57000
In560      In  0.59752354  0.06786230  0.34357737     1.36900
C561        C  0.58774698  0.02654517  0.32643536     0.80700
O562        O  0.62292339  0.07350682  0.39911644    -0.57800
O563        O  0.59064499  0.06595773  0.41995896    -0.48700
C564        C  0.62526646  0.10369585  0.29454207     0.73300
O565        O  0.61644378  0.08447919  0.27747965    -0.43500
C566        C  0.56181282  0.07075021  0.32806884     0.78100
O567        O  0.60708115  0.04282685  0.32030131    -0.55400
O568        O  0.57271812  0.07711067  0.36559331    -0.45500
O569        O  0.57374327  0.03148044  0.33994229    -0.51800
C570        C  0.60970301  0.07035677  0.43221039     0.88200
O571        O  0.62101077  0.10447319  0.33699872    -0.53700
O572        O  0.56914057  0.06295463  0.29793326    -0.57000
In573      In  0.39594737  0.92034210  0.66082708     1.36900
C574        C  0.40633977  0.96184677  0.67778661     0.80700
O575        O  0.42449559  0.92525740  0.70610740    -0.57800
O576        O  0.42012472  0.91008535  0.63944867    -0.48700
C577        C  0.36765134  0.88493980  0.71025836     0.73300
O578        O  0.37718732  0.90419130  0.72728149    -0.43500
C579        C  0.38375527  0.91797113  0.57222765     0.78100
O580        O  0.38726035  0.94565457  0.68660016    -0.55400
O581        O  0.40267272  0.92196616  0.58450186    -0.45500
O582        O  0.41979007  0.95675584  0.66139515    -0.51800
C583        C  0.43140611  0.91688366  0.67641477     0.88200
O584        O  0.37152278  0.88393477  0.66763673    -0.53700
O585        O  0.37061439  0.91510823  0.60531906    -0.57000
In586      In  0.39495935  0.91999657  0.34382141     1.36900
C587        C  0.40461621  0.96138089  0.32757435     0.80700
O588        O  0.36971105  0.91373823  0.40018685    -0.57800
O589        O  0.40257096  0.92280358  0.41988074    -0.48700
C590        C  0.36693471  0.88481625  0.29368481     0.73300
O591        O  0.37705052  0.90404652  0.27646566    -0.43500
C592        C  0.43044113  0.91647210  0.32985037     0.78100
O593        O  0.38518074  0.94513661  0.32243373    -0.55400
O594        O  0.41863576  0.90924020  0.36610059    -0.45500
O595        O  0.41876606  0.95635858  0.33938374    -0.51800
C596        C  0.38339793  0.91776036  0.43280099     0.88200
O597        O  0.37012487  0.88377013  0.33666134    -0.53700
O598        O  0.42397072  0.92519387  0.29998845    -0.57000
In599      In  0.46802135  0.06989779  0.66040265     1.36900
C600        C  0.43792015  0.02773493  0.67736404     0.80700
O601        O  0.44628956  0.07347026  0.60637187    -0.57800
O602        O  0.47299370  0.06954352  0.58365011    -0.48700
C603        C  0.47504277  0.10485825  0.71027672     0.73300
O604        O  0.46516389  0.08554377  0.72703877    -0.43500
C605        C  0.50727040  0.07394219  0.67519938     0.78100
O606        O  0.43430462  0.04314507  0.68739164    -0.55400
O607        O  0.50281275  0.08087663  0.63853975    -0.45500
O608        O  0.45657944  0.03393839  0.65955714    -0.51800
C609        C  0.45701098  0.07197557  0.57249306     0.88200
O610        O  0.48012737  0.10612911  0.66772628    -0.53700
O611        O  0.49191529  0.06542448  0.70510121    -0.57000
In612      In  0.46644431  0.06957917  0.34488275     1.36900
C613        C  0.43596662  0.02729976  0.32946419     0.80700
O614        O  0.48960910  0.06494163  0.29784744    -0.57800
O615        O  0.50074782  0.07857400  0.36577676    -0.48700
C616        C  0.47367064  0.10491317  0.29555531     0.73300
O617        O  0.46277313  0.08554227  0.27935170    -0.43500
C618        C  0.45649904  0.07222727  0.43337443     0.78100
O619        O  0.43233393  0.04273416  0.31977822    -0.55400
O620        O  0.47325067  0.07131849  0.42121909    -0.45500
O621        O  0.45481697  0.03352320  0.34623943    -0.51800
C622        C  0.50489046  0.07220052  0.32795460     0.88200
O623        O  0.47973472  0.10611315  0.33738237    -0.53700
O624        O  0.44455586  0.07211126  0.40019379    -0.57000
C625        C  0.45190244  0.07290054  0.52417418    -0.10200
C626        C  0.45175525  0.07300247  0.48199910    -0.11700
C627        C  0.42019145  0.00415888  0.32278823    -0.10200
C628        C  0.41069476  0.98415716  0.32213480    -0.11700
C629        C  0.41273425  0.98462498  0.68452292    -0.10200
C630        C  0.42226183  0.00461547  0.68444121    -0.11700
C631        C  0.37805688  0.91670782  0.48150670    -0.10200
C632        C  0.37813379  0.91679677  0.52367579    -0.11700
C633        C  0.52523424  0.07239417  0.32103975    -0.10200
C634        C  0.54215365  0.07186343  0.32119384    -0.11700
C635        C  0.54506718  0.07456023  0.68139382    -0.10200
C636        C  0.52800991  0.07483206  0.68118720    -0.11700
C637        C  0.61591561  0.07209468  0.52287876    -0.10200
C638        C  0.61545964  0.07172790  0.48073162    -0.11700
C639        C  0.46739040  0.91536660  0.32448023    -0.10200
C640        C  0.45025739  0.91550259  0.32421086    -0.11700
C641        C  0.57222172  0.98382087  0.32083534    -0.10200
C642        C  0.58164923  0.00381019  0.32024900    -0.11700
C643        C  0.45109348  0.91575786  0.68301046    -0.10200
C644        C  0.46813636  0.91543484  0.68299002    -0.11700
C645        C  0.57343687  0.98488325  0.68121568    -0.10200
C646        C  0.58305960  0.00488884  0.68187621    -0.11700
C647        C  0.54282440  0.91490253  0.52338920    -0.10200
C648        C  0.54272490  0.91466702  0.48124101    -0.11700
C649        C  0.74166121  0.46704850  0.81239945    -0.10200
C650        C  0.72441426  0.46699181  0.81279517    -0.11700
C651        C  0.67100394  0.46966748  0.98013354    -0.10200
C652        C  0.67079571  0.46975401  0.02234353    -0.11700
C653        C  0.79408170  0.46711609  0.98226751    -0.10200
C654        C  0.79385420  0.46715899  0.02452511    -0.11700
C655        C  0.72186191  0.46622291  0.19187091    -0.10200
C656        C  0.73912330  0.46628684  0.19241028    -0.11700
C657        C  0.64092286  0.12376281  0.73961593    -0.10200
C658        C  0.64891187  0.14046670  0.76273994    -0.11700
C659        C  0.79807911  0.38761304  0.82202904    -0.10200
C660        C  0.79803720  0.40483192  0.82189733    -0.11700
C661        C  0.74101733  0.26813166  0.81538635    -0.10200
C662        C  0.72369217  0.25069684  0.81532637    -0.11700
C663        C  0.64595260  0.14031657  0.24448755    -0.10200
C664        C  0.63789601  0.12342889  0.26709273    -0.11700
C665        C  0.67013194  0.19578937  0.02553323    -0.10200
C666        C  0.67046168  0.19577028  0.98333148    -0.11700
C667        C  0.79567595  0.38749568  0.18665691    -0.10200
C668        C  0.79567399  0.40472634  0.18661020    -0.11700
C669        C  0.79500843  0.32187158  0.98286455    -0.10200
C670        C  0.79461472  0.32168297  0.02505269    -0.11700
C671        C  0.72167620  0.25165565  0.19424630    -0.10200
C672        C  0.73907210  0.26902489  0.19410508    -0.11700
C673        C  0.49029206  0.14099562  0.76116054    -0.10200
C674        C  0.48163243  0.12425043  0.73816355    -0.11700
C675        C  0.58797590  0.19457952  0.82093814    -0.10200
C676        C  0.60510829  0.19435834  0.82097265    -0.11700
C677        C  0.58866476  0.38568265  0.81570267    -0.10200
C678        C  0.60612444  0.40305099  0.81614041    -0.11700
C679        C  0.52568900  0.25058411  0.81085395    -0.10200
C680        C  0.52553670  0.26769633  0.81059053    -0.11700
C681        C  0.48864391  0.14106924  0.24442686    -0.10200
C682        C  0.48019354  0.12436648  0.26770656    -0.11700
C683        C  0.58628302  0.19531689  0.18568536    -0.10200
C684        C  0.60342857  0.19512001  0.18610775    -0.11700
C685        C  0.52319112  0.19683051  0.98088093    -0.10200
C686        C  0.52288997  0.19676559  0.02307680    -0.11700
C687        C  0.58593228  0.38645094  0.18164605    -0.10200
C688        C  0.60336449  0.40383799  0.18157080    -0.11700
C689        C  0.52218573  0.32050759  0.97791817    -0.10200
C690        C  0.52188486  0.32052736  0.02011784    -0.11700
C691        C  0.52388679  0.26814053  0.18953047    -0.10200
C692        C  0.52400049  0.25100457  0.18987669    -0.11700
C693        C  0.34656949  0.84860086  0.76098719    -0.10200
C694        C  0.35471310  0.86536614  0.73797008    -0.11700
C695        C  0.27157365  0.73834807  0.81128420    -0.10200
C696        C  0.25423766  0.72090529  0.81098912    -0.11700
C697        C  0.19793193  0.66744726  0.02038089    -0.10200
C698        C  0.19823989  0.66745826  0.97821403    -0.11700
C699        C  0.35405272  0.86525374  0.26601452    -0.10200
C700        C  0.34581911  0.84836024  0.24349144    -0.11700
C701        C  0.32401653  0.79242973  0.98150724    -0.10200
C702        C  0.32396109  0.79251668  0.02371471    -0.11700
C703        C  0.26921517  0.73866429  0.19071023    -0.10200
C704        C  0.25176244  0.72138179  0.18965153    -0.11700
C705        C  0.19863816  0.60246114  0.81755824    -0.10200
C706        C  0.19870348  0.58526746  0.81795203    -0.11700
C707        C  0.27075218  0.52186105  0.81568600    -0.10200
C708        C  0.25360085  0.52199144  0.81521760    -0.11700
C709        C  0.32318303  0.51982783  0.02531188    -0.10200
C710        C  0.32330540  0.51982289  0.98312295    -0.11700
C711        C  0.19648390  0.60262252  0.18193558    -0.10200
C712        C  0.19677292  0.58552554  0.18201583    -0.11700
C713        C  0.19833028  0.52160184  0.02214887    -0.10200
C714        C  0.19839071  0.52147617  0.97994976    -0.11700
C715        C  0.25256040  0.52264594  0.18994633    -0.10200
C716        C  0.26974329  0.52255816  0.19036568    -0.11700
C717        C  0.50576488  0.84815156  0.76006687    -0.10200
C718        C  0.51427313  0.86482669  0.73674033    -0.11700
C719        C  0.39058172  0.79490005  0.82294824    -0.10200
C720        C  0.40782429  0.79486479  0.82295951    -0.11700
C721        C  0.40625777  0.60270962  0.82033311    -0.10200
C722        C  0.38895413  0.58520985  0.82052769    -0.11700
C723        C  0.46948543  0.73846383  0.81284180    -0.10200
C724        C  0.46936073  0.72121478  0.81288502    -0.11700
C725        C  0.51191227  0.86305420  0.27031888    -0.10200
C726        C  0.50321810  0.84636466  0.24710595    -0.11700
C727        C  0.38855430  0.79372776  0.18536197    -0.10200
C728        C  0.40571599  0.79359022  0.18525135    -0.11700
C729        C  0.47041764  0.79232603  0.02416555    -0.10200
C730        C  0.47084571  0.79234610  0.98196233    -0.11700
C731        C  0.40662990  0.60248510  0.18559094    -0.10200
C732        C  0.38913637  0.58514848  0.18597574    -0.11700
C733        C  0.47294327  0.66915987  0.02285963    -0.10200
C734        C  0.47296447  0.66910520  0.98066959    -0.11700
C735        C  0.46795232  0.72037311  0.19129961    -0.10200
C736        C  0.46775979  0.73745922  0.19157608    -0.11700
C737        C  0.12662882  0.47953639  0.26754627    -0.10200
C738        C  0.14334958  0.48793388  0.24434681    -0.11700
C739        C  0.14466793  0.48736207  0.75614566    -0.10200
C740        C  0.12797488  0.47885042  0.73284212    -0.11700
C741        C  0.07574556  0.44969740  0.52158707    -0.10200
C742        C  0.07582801  0.44990387  0.47945417    -0.11700
C743        C  0.84989345  0.34353890  0.24381607    -0.10200
C744        C  0.86667595  0.35157935  0.26672642    -0.11700
C745        C  0.98625458  0.41196426  0.32310122    -0.10200
C746        C  0.00628323  0.42177383  0.32344436    -0.11700
C747        C  0.85016151  0.34210457  0.75987314    -0.10200
C748        C  0.86689790  0.35014182  0.73671884    -0.11700
C749        C  0.98715688  0.41100168  0.68300608    -0.10200
C750        C  0.00720121  0.42079119  0.68214552    -0.11700
C751        C  0.91892596  0.37500633  0.52316290    -0.10200
C752        C  0.91854473  0.37514575  0.48099950    -0.11700
C753        C  0.14250691  0.64728062  0.24138534    -0.10200
C754        C  0.12589164  0.63944518  0.26480547    -0.11700
C755        C  0.07655066  0.54355187  0.32211492    -0.10200
C756        C  0.07667565  0.52643372  0.32215302    -0.11700
C757        C  0.14389034  0.64577715  0.75837070    -0.10200
C758        C  0.12715877  0.63788408  0.73539892    -0.11700
C759        C  0.07670385  0.54213279  0.68021412    -0.10200
C760        C  0.07704523  0.52513541  0.68055310    -0.11700
C761        C  0.07598100  0.61642478  0.52223120    -0.10200
C762        C  0.07578993  0.61656104  0.48010266    -0.11700
C763        C  0.86655201  0.51182231  0.26843260    -0.10200
C764        C  0.84970677  0.50308943  0.24557544    -0.11700
C765        C  0.91673943  0.46535474  0.32071482    -0.10200
C766        C  0.91651769  0.44806084  0.32089924    -0.11700
C767        C  0.98684206  0.57112463  0.32237002    -0.10200
C768        C  0.00685592  0.58088758  0.32175128    -0.11700
C769        C  0.86847298  0.51117515  0.73940422    -0.10200
C770        C  0.85172222  0.50271967  0.76253151    -0.11700
C771        C  0.91691327  0.46390794  0.68301766    -0.10200
C772        C  0.91686758  0.44670768  0.68314070    -0.11700
C773        C  0.00777781  0.57949986  0.68176836    -0.10200
C774        C  0.98777883  0.56973238  0.68221839    -0.11700
C775        C  0.91870983  0.53957222  0.48191265    -0.10200
C776        C  0.91889715  0.53943794  0.52406325    -0.11700
C777        C  0.47906011  0.34973668  0.26318968    -0.10200
C778        C  0.48745428  0.34158143  0.24001876    -0.11700
C779        C  0.48109773  0.34964835  0.73502477    -0.10200
C780        C  0.48973647  0.34163380  0.75782834    -0.11700
C781        C  0.45310373  0.37378404  0.52227823    -0.10200
C782        C  0.45306088  0.37386741  0.48016626    -0.11700
C783        C  0.35230327  0.47978175  0.27201803    -0.10200
C784        C  0.34401474  0.48807189  0.24888557    -0.11700
C785        C  0.42045539  0.40867109  0.32040719    -0.10200
C786        C  0.41069510  0.41872742  0.32119050    -0.11700
C787        C  0.35209968  0.47711237  0.74026824    -0.10200
C788        C  0.34443507  0.48600379  0.76336132    -0.11700
C789        C  0.41015393  0.41717034  0.68428347    -0.10200
C790        C  0.42012423  0.40733052  0.68421908    -0.11700
C791        C  0.37487607  0.44939481  0.52466803    -0.10200
C792        C  0.37496572  0.44964162  0.48253348    -0.11700
C793        C  0.64850668  0.50230590  0.24296106    -0.10200
C794        C  0.64071127  0.51096270  0.26636092    -0.11700
C795        C  0.54464900  0.46380349  0.32216262    -0.10200
C796        C  0.52747632  0.44629423  0.32195052    -0.11700
C797        C  0.64152428  0.51036348  0.73721923    -0.10200
C798        C  0.64956174  0.50169510  0.75993452    -0.11700
C799        C  0.52674338  0.44664545  0.68525820    -0.10200
C800        C  0.54409099  0.46397758  0.68566814    -0.11700
C801        C  0.61721112  0.53760732  0.48212265    -0.10200
C802        C  0.61733301  0.53753585  0.52423264    -0.11700
C803        C  0.51442091  0.63979138  0.26350699    -0.10200
C804        C  0.50574574  0.64769673  0.24053737    -0.11700
C805        C  0.46728556  0.54218433  0.32072647    -0.10200
C806        C  0.45001503  0.52475067  0.32150514    -0.11700
C807        C  0.57386362  0.58153695  0.32116075    -0.10200
C808        C  0.58360320  0.57148386  0.32149345    -0.11700
C809        C  0.51245591  0.63901740  0.73525575    -0.10200
C810        C  0.50402360  0.64712936  0.75842897    -0.11700
C811        C  0.46553573  0.54177337  0.68076759    -0.10200
C812        C  0.44826650  0.52435419  0.68103042    -0.11700
C813        C  0.57188215  0.57980953  0.68102819    -0.10200
C814        C  0.58184229  0.56994760  0.68163408    -0.11700
C815        C  0.54088157  0.61645334  0.47946030    -0.10200
C816        C  0.54065358  0.61622704  0.52161170    -0.11700
loop_ 
_geom_bond_atom_site_label_1 
_geom_bond_atom_site_label_2 
_geom_bond_distance 
_geom_bond_site_symmetry_2 
_ccdc_geom_bond_type 
In1           O3   2.253       .  S
In1           O4   2.234       .  S
In1          O12   2.245       .  S
In1           O6   2.257       .  S
In1           O8   2.273       .  S
In1           O9   2.222       .  S
In1          O10   2.227       .  S
In1          O13   2.266       .  S
C2            O8   1.262       .  A
C2           O10   1.256       .  A
C2          C813   1.436       .  S
O3           C11   1.260       .  A
O4           C11   1.258       .  A
C5           O12   1.256       .  A
C5            O6   1.259       .  A
C5          C809   1.436       .  S
C7            O9   1.257       .  A
C7           O13   1.261       .  A
C7          C816   1.434       .  S
C11         C811   1.432       .  S
In14         O16   2.268       .  S
In14         O17   2.220       .  S
In14         O25   2.241       .  S
In14         O19   2.255       .  S
In14         O21   2.271       .  S
In14         O22   2.234       .  S
In14         O23   2.222       .  S
In14         O26   2.256       .  S
C15          O21   1.262       .  A
C15          O23   1.256       .  A
C15         C807   1.433       .  S
O16          C24   1.262       .  A
O17          C24   1.256       .  A
C18          O25   1.256       .  A
C18          O19   1.259       .  A
C18         C803   1.433       .  S
C20          O22   1.258       .  A
C20          O26   1.260       .  A
C20         C805   1.433       .  S
C24         C815   1.434       .  S
In27         O29   2.262       .  S
In27         O30   2.218       .  S
In27         O38   2.244       .  S
In27         O32   2.260       .  S
In27         O34   2.274       .  S
In27         O35   2.229       .  S
In27         O36   2.227       .  S
In27         O39   2.253       .  S
C28          O34   1.262       .  A
C28          O36   1.256       .  A
C28         C814   1.436       .  S
O29          C37   1.262       .  A
O30          C37   1.257       .  A
C31          O38   1.256       .  A
C31          O32   1.260       .  A
C31         C797   1.437       .  S
C33          O35   1.258       .  A
C33          O39   1.261       .  A
C33         C800   1.431       .  S
C37         C802   1.432       .  S
In40         O42   2.252       .  S
In40         O43   2.231       .  S
In40         O51   2.239       .  S
In40         O45   2.255       .  S
In40         O47   2.270       .  S
In40         O48   2.221       .  S
In40         O49   2.226       .  S
In40         O52   2.262       .  S
C41          O47   1.261       .  A
C41          O49   1.256       .  A
C41         C808   1.433       .  S
O42          C50   1.261       .  A
O43          C50   1.259       .  A
C44          O51   1.256       .  A
C44          O45   1.259       .  A
C44         C794   1.434       .  S
C46          O48   1.257       .  A
C46          O52   1.261       .  A
C46         C801   1.432       .  S
C50         C795   1.431       .  S
In53         O55   2.263       .  S
In53         O56   2.218       .  S
In53         O64   2.247       .  S
In53         O58   2.254       .  S
In53         O60   2.272       .  S
In53         O61   2.236       .  S
In53         O62   2.225       .  S
In53         O65   2.250       .  S
C54          O60   1.262       .  A
C54          O62   1.256       .  A
C54         C789   1.434       .  S
O55          C63   1.262       .  A
O56          C63   1.257       .  A
C57          O64   1.256       .  A
C57          O58   1.258       .  A
C57         C787   1.435       .  S
C59          O61   1.258       .  A
C59          O65   1.260       .  A
C59         C812   1.432       .  S
C63         C791   1.432       .  S
In66         O68   2.254       .  S
In66         O69   2.232       .  S
In66         O77   2.245       .  S
In66         O71   2.258       .  S
In66         O73   2.273       .  S
In66         O74   2.220       .  S
In66         O75   2.227       .  S
In66         O78   2.266       .  S
C67          O73   1.262       .  A
C67          O75   1.256       .  A
C67         C786   1.435       .  S
O68          C76   1.261       .  A
O69          C76   1.259       .  A
C70          O77   1.256       .  A
C70          O71   1.260       .  A
C70         C783   1.437       .  S
C72          O74   1.256       .  A
C72          O78   1.261       .  A
C72         C792   1.432       .  S
C76         C806   1.433       .  S
In79         O81   2.251       .  S
In79         O82   2.230       .  S
In79         O90   2.239       .  S
In79         O84   2.257       .  S
In79         O86   2.272       .  S
In79         O87   2.221       .  S
In79         O88   2.223       .  S
In79         O91   2.264       .  S
C80          O86   1.262       .  A
C80          O88   1.256       .  A
C80         C790   1.434       .  S
O81          C89   1.261       .  A
O82          C89   1.259       .  A
C83          O90   1.256       .  A
C83          O84   1.260       .  A
C83         C779   1.435       .  S
C85          O87   1.256       .  A
C85          O91   1.261       .  A
C85         C781   1.432       .  S
C89         C799   1.431       .  S
In92         O94   2.263       .  S
In92         O95   2.222       .  S
In92        O103   2.238       .  S
In92         O97   2.260       .  S
In92         O99   2.274       .  S
In92        O100   2.234       .  S
In92        O101   2.226       .  S
In92        O104   2.247       .  S
C93          O99   1.262       .  A
C93         O101   1.255       .  A
C93         C785   1.435       .  S
O94         C102   1.260       .  A
O95         C102   1.256       .  A
C96         O103   1.256       .  A
C96          O97   1.261       .  A
C96         C777   1.436       .  S
C98         O100   1.260       .  A
C98         O104   1.261       .  A
C98         C796   1.431       .  S
C102        C782   1.432       .  S
In105       O107   2.252       .  S
In105       O108   2.234       .  S
In105       O116   2.239       .  S
In105       O110   2.259       .  S
In105       O112   2.270       .  S
In105       O113   2.223       .  S
In105       O114   2.225       .  S
In105       O117   2.268       .  S
C106        O112   1.261       .  A
C106        O114   1.256       .  A
C106        C774   1.433       .  S
O107        C115   1.261       .  A
O108        C115   1.259       .  A
C109        O116   1.257       .  A
C109        O110   1.260       .  A
C109        C769   1.436       .  S
C111        O113   1.256       .  A
C111        O117   1.261       .  A
C111        C776   1.434       .  S
C115        C771   1.432       .  S
In118       O120   2.267       .  S
In118       O121   2.221       .  S
In118       O129   2.247       .  S
In118       O123   2.261       .  S
In118       O125   2.272       .  S
In118       O126   2.233       .  S
In118       O127   2.227       .  S
In118       O130   2.257       .  S
C119        O125   1.262       .  A
C119        O127   1.256       .  A
C119        C767   1.435       .  S
O120        C128   1.262       .  A
O121        C128   1.257       .  A
C122        O129   1.256       .  A
C122        O123   1.259       .  A
C122        C763   1.438       .  S
C124        O126   1.258       .  A
C124        O130   1.261       .  A
C124        C765   1.433       .  S
C128        C775   1.434       .  S
In131       O133   2.263       .  S
In131       O134   2.218       .  S
In131       O142   2.239       .  S
In131       O136   2.251       .  S
In131       O138   2.268       .  S
In131       O139   2.234       .  S
In131       O140   2.225       .  S
In131       O143   2.252       .  S
C132        O138   1.261       .  A
C132        O140   1.256       .  A
C132        C773   1.433       .  S
O133        C141   1.262       .  A
O134        C141   1.257       .  A
C135        O142   1.257       .  A
C135        O136   1.259       .  A
C135        C758   1.433       .  S
C137        O139   1.259       .  A
C137        O143   1.260       .  A
C137        C759   1.432       .  S
C141        C761   1.431       .  S
In144       O146   2.254       .  S
In144       O147   2.235       .  S
In144       O155   2.239       .  S
In144       O149   2.253       .  S
In144       O151   2.272       .  S
In144       O152   2.218       .  S
In144       O153   2.228       .  S
In144       O156   2.264       .  S
C145        O151   1.261       .  A
C145        O153   1.255       .  A
C145        C768   1.435       .  S
O146        C154   1.261       .  A
O147        C154   1.259       .  A
C148        O155   1.257       .  A
C148        O149   1.260       .  A
C148        C754   1.434       .  S
C150        O152   1.257       .  A
C150        O156   1.261       .  A
C150        C762   1.431       .  S
C154        C755   1.433       .  S
In157       O159   2.267       .  S
In157       O160   2.220       .  S
In157       O168   2.243       .  S
In157       O162   2.259       .  S
In157       O164   2.276       .  S
In157       O165   2.234       .  S
In157       O166   2.229       .  S
In157       O169   2.253       .  S
C158        O164   1.263       .  A
C158        O166   1.256       .  A
C158        C749   1.437       .  S
O159        C167   1.262       .  A
O160        C167   1.257       .  A
C161        O168   1.256       .  A
C161        O162   1.260       .  A
C161        C748   1.437       .  S
C163        O165   1.259       .  A
C163        O169   1.261       .  A
C163        C772   1.432       .  S
C167        C751   1.433       .  S
In170       O172   2.251       .  S
In170       O173   2.238       .  S
In170       O181   2.242       .  S
In170       O175   2.254       .  S
In170       O177   2.272       .  S
In170       O178   2.222       .  S
In170       O179   2.226       .  S
In170       O182   2.263       .  S
C171        O177   1.262       .  A
C171        O179   1.256       .  A
C171        C745   1.435       .  S
O172        C180   1.260       .  A
O173        C180   1.259       .  A
C174        O181   1.257       .  A
C174        O175   1.260       .  A
C174        C744   1.435       .  S
C176        O178   1.258       .  A
C176        O182   1.262       .  A
C176        C752   1.433       .  S
C180        C766   1.433       .  S
In183       O185   2.254       .  S
In183       O186   2.233       .  S
In183       O194   2.245       .  S
In183       O188   2.260       .  S
In183       O190   2.274       .  S
In183       O191   2.220       .  S
In183       O192   2.230       .  S
In183       O195   2.268       .  S
C184        O190   1.263       .  A
C184        O192   1.256       .  A
C184        C750   1.437       .  S
O185        C193   1.261       .  A
O186        C193   1.258       .  A
C187        O194   1.256       .  A
C187        O188   1.260       .  A
C187        C740   1.436       .  S
C189        O191   1.256       .  A
C189        O195   1.261       .  A
C189        C741   1.433       .  S
C193        C760   1.432       .  S
In196       O198   2.267       .  S
In196       O199   2.218       .  S
In196       O207   2.242       .  S
In196       O201   2.258       .  S
In196       O203   2.271       .  S
In196       O204   2.235       .  S
In196       O205   2.229       .  S
In196       O208   2.256       .  S
C197        O203   1.262       .  A
C197        O205   1.256       .  A
C197        C746   1.436       .  S
O198        C206   1.261       .  A
O199        C206   1.257       .  A
C200        O207   1.256       .  A
C200        O201   1.260       .  A
C200        C737   1.435       .  S
C202        O204   1.258       .  A
C202        O208   1.261       .  A
C202        C756   1.433       .  S
C206        C742   1.433       .  S
In209       O211   2.246       .  S
In209       O212   2.262       .  S
In209       O220   2.251       .  S
In209       O214   2.244       .  S
In209       O216   2.254       .  S
In209       O217   2.249       .  S
In209       O218   2.239       .  S
In209       O221   2.257       .  S
C210        O216   1.260       .  A
C210        O218   1.258       .  A
C210        C733   1.435       .  S
O211        C219   1.258       .  A
O212        C219   1.260       .  A
C213        O220   1.259       .  A
C213        O214   1.257       .  A
C213        C804   1.434       .  S
C215        O217   1.257       .  A
C215        O221   1.258       .  A
C215        C735   1.438       .  S
C219        C731   1.438       .  S
In222       O224   2.257       .  S
In222       O225   2.246       .  S
In222       O233   2.253       .  S
In222       O227   2.246       .  S
In222       O229   2.253       .  S
In222       O230   2.258       .  S
In222       O231   2.243       .  S
In222       O234   2.245       .  S
C223        O229   1.260       .  A
C223        O231   1.258       .  A
C223        C729   1.434       .  S
O224        C232   1.259       .  A
O225        C232   1.257       .  A
C226        O233   1.260       .  A
C226        O227   1.258       .  A
C226        C726   1.436       .  S
C228        O230   1.260       .  A
C228        O234   1.258       .  A
C228        C728   1.437       .  S
C232        C736   1.438       .  S
In235       O237   2.257       .  S
In235       O238   2.246       .  S
In235       O246   2.255       .  S
In235       O240   2.245       .  S
In235       O242   2.257       .  S
In235       O243   2.261       .  S
In235       O244   2.240       .  S
In235       O247   2.245       .  S
C236        O242   1.259       .  A
C236        O244   1.258       .  A
C236        C734   1.435       .  S
O237        C245   1.259       .  A
O238        C245   1.257       .  A
C239        O246   1.260       .  A
C239        O240   1.257       .  A
C239        C810   1.436       .  S
C241        O243   1.260       .  A
C241        O247   1.258       .  A
C241        C721   1.438       .  S
C245        C724   1.438       .  S
In248       O250   2.240       .  S
In248       O251   2.255       .  S
In248       O259   2.255       .  S
In248       O253   2.248       .  S
In248       O255   2.260       .  S
In248       O256   2.249       .  S
In248       O257   2.247       .  S
In248       O260   2.256       .  S
C249        O255   1.261       .  A
C249        O257   1.259       .  A
C249        C720   1.439       .  S
O250        C258   1.258       .  A
O251        C258   1.260       .  A
C252        O259   1.259       .  A
C252        O253   1.258       .  A
C252        C723   1.438       .  S
C254        O256   1.257       .  A
C254        O260   1.259       .  A
C254        C717   1.437       .  S
C258        C730   1.434       .  S
In261       O263   2.248       .  S
In261       O264   2.264       .  S
In261       O272   2.255       .  S
In261       O266   2.246       .  S
In261       O268   2.251       .  S
In261       O269   2.250       .  S
In261       O270   2.241       .  S
In261       O273   2.259       .  S
C262        O268   1.260       .  A
C262        O270   1.259       .  A
C262        C713   1.434       .  S
O263        C271   1.258       .  A
O264        C271   1.261       .  A
C265        O272   1.260       .  A
C265        O266   1.257       .  A
C265        C738   1.436       .  S
C267        O269   1.258       .  A
C267        O273   1.259       .  A
C267        C715   1.440       .  S
C271        C712   1.439       .  S
In274       O276   2.261       .  S
In274       O277   2.248       .  S
In274       O285   2.256       .  S
In274       O279   2.246       .  S
In274       O281   2.255       .  S
In274       O282   2.263       .  S
In274       O283   2.239       .  S
In274       O286   2.246       .  S
C275        O281   1.260       .  A
C275        O283   1.258       .  A
C275        C709   1.435       .  S
O276        C284   1.259       .  A
O277        C284   1.258       .  A
C278        O285   1.260       .  A
C278        O279   1.258       .  A
C278        C784   1.437       .  S
C280        O282   1.261       .  A
C280        O286   1.258       .  A
C280        C732   1.438       .  S
C284        C716   1.440       .  S
In287       O289   2.258       .  S
In287       O290   2.248       .  S
In287       O298   2.257       .  S
In287       O292   2.250       .  S
In287       O294   2.261       .  S
In287       O295   2.252       .  S
In287       O296   2.246       .  S
In287       O299   2.240       .  S
C288        O294   1.261       .  A
C288        O296   1.258       .  A
C288        C706   1.438       .  S
O289        C297   1.259       .  A
O290        C297   1.257       .  A
C291        O298   1.259       .  A
C291        O292   1.258       .  A
C291        C708   1.439       .  S
C293        O295   1.260       .  A
C293        O299   1.258       .  A
C293        C714   1.434       .  S
C297        C739   1.437       .  S
In300       O302   2.245       .  S
In300       O303   2.261       .  S
In300       O311   2.257       .  S
In300       O305   2.248       .  S
In300       O307   2.253       .  S
In300       O308   2.248       .  S
In300       O309   2.240       .  S
In300       O312   2.258       .  S
C301        O307   1.260       .  A
C301        O309   1.258       .  A
C301        C710   1.435       .  S
O302        C310   1.258       .  A
O303        C310   1.260       .  A
C304        O311   1.259       .  A
C304        O305   1.257       .  A
C304        C788   1.436       .  S
C306        O308   1.258       .  A
C306        O312   1.259       .  A
C306        C707   1.439       .  S
C310        C722   1.438       .  S
In313       O315   2.244       .  S
In313       O316   2.259       .  S
In313       O324   2.253       .  S
In313       O318   2.246       .  S
In313       O320   2.254       .  S
In313       O321   2.245       .  S
In313       O322   2.242       .  S
In313       O325   2.260       .  S
C314        O320   1.260       .  A
C314        O322   1.258       .  A
C314        C702   1.435       .  S
O315        C323   1.258       .  A
O316        C323   1.260       .  A
C317        O324   1.260       .  A
C317        O318   1.258       .  A
C317        C700   1.436       .  S
C319        O321   1.257       .  A
C319        O325   1.259       .  A
C319        C703   1.437       .  S
C323        C727   1.437       .  S
In326       O328   2.258       .  S
In326       O329   2.246       .  S
In326       O337   2.253       .  S
In326       O331   2.247       .  S
In326       O333   2.252       .  S
In326       O334   2.263       .  S
In326       O335   2.241       .  S
In326       O338   2.250       .  S
C327        O333   1.259       .  A
C327        O335   1.258       .  A
C327        C697   1.434       .  S
O328        C336   1.259       .  A
O329        C336   1.258       .  A
C330        O337   1.259       .  A
C330        O331   1.257       .  A
C330        C753   1.434       .  S
C332        O334   1.260       .  A
C332        O338   1.258       .  A
C332        C711   1.439       .  S
C336        C704   1.438       .  S
In339       O341   2.259       .  S
In339       O342   2.250       .  S
In339       O350   2.258       .  S
In339       O344   2.249       .  S
In339       O346   2.253       .  S
In339       O347   2.263       .  S
In339       O348   2.245       .  S
In339       O351   2.250       .  S
C340        O346   1.260       .  A
C340        O348   1.259       .  A
C340        C701   1.435       .  S
O341        C349   1.259       .  A
O342        C349   1.258       .  A
C343        O350   1.259       .  A
C343        O344   1.257       .  A
C343        C693   1.437       .  S
C345        O347   1.260       .  A
C345        O351   1.258       .  A
C345        C719   1.439       .  S
C349        C695   1.439       .  S
In352       O354   2.245       .  S
In352       O355   2.263       .  S
In352       O363   2.254       .  S
In352       O357   2.244       .  S
In352       O359   2.251       .  S
In352       O360   2.250       .  S
In352       O361   2.240       .  S
In352       O364   2.258       .  S
C353        O359   1.259       .  A
C353        O361   1.258       .  A
C353        C698   1.434       .  S
O354        C362   1.258       .  A
O355        C362   1.261       .  A
C356        O363   1.259       .  A
C356        O357   1.256       .  A
C356        C757   1.434       .  S
C358        O360   1.258       .  A
C358        O364   1.259       .  A
C358        C696   1.439       .  S
C362        C705   1.438       .  S
In365       O367   2.244       .  S
In365       O368   2.259       .  S
In365       O376   2.256       .  S
In365       O370   2.247       .  S
In365       O372   2.257       .  S
In365       O373   2.248       .  S
In365       O374   2.241       .  S
In365       O377   2.259       .  S
C366        O372   1.259       .  A
C366        O374   1.257       .  A
C366        C690   1.435       .  S
O367        C375   1.259       .  A
O368        C375   1.261       .  A
C369        O376   1.260       .  A
C369        O370   1.257       .  A
C369        C778   1.436       .  S
C371        O373   1.257       .  A
C371        O377   1.259       .  A
C371        C691   1.439       .  S
C375        C687   1.438       .  S
In378       O380   2.257       .  S
In378       O381   2.249       .  S
In378       O389   2.256       .  S
In378       O383   2.249       .  S
In378       O385   2.261       .  S
In378       O386   2.253       .  S
In378       O387   2.244       .  S
In378       O390   2.239       .  S
C379        O385   1.261       .  A
C379        O387   1.258       .  A
C379        C683   1.438       .  S
O380        C388   1.259       .  A
O381        C388   1.257       .  A
C382        O389   1.259       .  A
C382        O383   1.258       .  A
C382        C692   1.439       .  S
C384        O386   1.260       .  A
C384        O390   1.258       .  A
C384        C686   1.433       .  S
C388        C681   1.438       .  S
In391       O393   2.260       .  S
In391       O394   2.248       .  S
In391       O402   2.256       .  S
In391       O396   2.246       .  S
In391       O398   2.255       .  S
In391       O399   2.264       .  S
In391       O400   2.242       .  S
In391       O403   2.245       .  S
C392        O398   1.260       .  A
C392        O400   1.258       .  A
C392        C689   1.435       .  S
O393        C401   1.258       .  A
O394        C401   1.257       .  A
C395        O402   1.259       .  A
C395        O396   1.257       .  A
C395        C780   1.436       .  S
C397        O399   1.261       .  A
C397        O403   1.258       .  A
C397        C677   1.439       .  S
C401        C680   1.439       .  S
In404       O406   2.241       .  S
In404       O407   2.251       .  S
In404       O415   2.257       .  S
In404       O409   2.248       .  S
In404       O411   2.262       .  S
In404       O412   2.244       .  S
In404       O413   2.247       .  S
In404       O416   2.252       .  S
C405        O411   1.260       .  A
C405        O413   1.258       .  A
C405        C675   1.438       .  S
O406        C414   1.259       .  A
O407        C414   1.259       .  A
C408        O415   1.259       .  A
C408        O409   1.258       .  A
C408        C679   1.439       .  S
C410        O412   1.258       .  A
C410        O416   1.260       .  A
C410        C673   1.435       .  S
C414        C685   1.433       .  S
In417       O419   2.255       .  S
In417       O420   2.246       .  S
In417       O428   2.257       .  S
In417       O422   2.248       .  S
In417       O424   2.265       .  S
In417       O425   2.252       .  S
In417       O426   2.246       .  S
In417       O429   2.242       .  S
C418        O424   1.260       .  A
C418        O426   1.257       .  A
C418        C667   1.439       .  S
O419        C427   1.259       .  A
O420        C427   1.257       .  A
C421        O428   1.259       .  A
C421        O422   1.258       .  A
C421        C672   1.439       .  S
C423        O425   1.260       .  A
C423        O429   1.259       .  A
C423        C670   1.435       .  S
C427        C743   1.435       .  S
In430       O432   2.245       .  S
In430       O433   2.260       .  S
In430       O441   2.255       .  S
In430       O435   2.248       .  S
In430       O437   2.257       .  S
In430       O438   2.249       .  S
In430       O439   2.242       .  S
In430       O442   2.261       .  S
C431        O437   1.260       .  A
C431        O439   1.258       .  A
C431        C665   1.435       .  S
O432        C440   1.259       .  A
O433        C440   1.261       .  A
C434        O441   1.260       .  A
C434        O435   1.258       .  A
C434        C663   1.437       .  S
C436        O438   1.257       .  A
C436        O442   1.258       .  A
C436        C671   1.439       .  S
C440        C684   1.438       .  S
In443       O445   2.250       .  S
In443       O446   2.261       .  S
In443       O454   2.257       .  S
In443       O448   2.247       .  S
In443       O450   2.254       .  S
In443       O451   2.249       .  S
In443       O452   2.242       .  S
In443       O455   2.257       .  S
C444        O450   1.260       .  A
C444        O452   1.258       .  A
C444        C669   1.435       .  S
O445        C453   1.258       .  A
O446        C453   1.260       .  A
C447        O454   1.259       .  A
C447        O448   1.257       .  A
C447        C747   1.437       .  S
C449        O451   1.258       .  A
C449        O455   1.259       .  A
C449        C661   1.438       .  S
C453        C659   1.439       .  S
In456       O458   2.257       .  S
In456       O459   2.246       .  S
In456       O467   2.255       .  S
In456       O461   2.245       .  S
In456       O463   2.256       .  S
In456       O464   2.261       .  S
In456       O465   2.241       .  S
In456       O468   2.246       .  S
C457        O463   1.260       .  A
C457        O465   1.258       .  A
C457        C666   1.435       .  S
O458        C466   1.259       .  A
O459        C466   1.258       .  A
C460        O467   1.260       .  A
C460        O461   1.257       .  A
C460        C658   1.436       .  S
C462        O464   1.260       .  A
C462        O468   1.258       .  A
C462        C676   1.438       .  S
C466        C662   1.438       .  S
In469       O471   2.247       .  S
In469       O472   2.262       .  S
In469       O480   2.260       .  S
In469       O474   2.253       .  S
In469       O476   2.255       .  S
In469       O477   2.253       .  S
In469       O478   2.246       .  S
In469       O481   2.261       .  S
C470        O476   1.260       .  A
C470        O478   1.259       .  A
C470        C654   1.437       .  S
O471        C479   1.258       .  A
O472        C479   1.260       .  A
C473        O480   1.259       .  A
C473        O474   1.257       .  A
C473        C764   1.439       .  S
C475        O477   1.257       .  A
C475        O481   1.259       .  A
C475        C656   1.441       .  S
C479        C668   1.439       .  S
In482       O484   2.257       .  S
In482       O485   2.251       .  S
In482       O493   2.256       .  S
In482       O487   2.247       .  S
In482       O489   2.256       .  S
In482       O490   2.261       .  S
In482       O491   2.239       .  S
In482       O494   2.247       .  S
C483        O489   1.260       .  A
C483        O491   1.258       .  A
C483        C652   1.435       .  S
O484        C492   1.259       .  A
O485        C492   1.258       .  A
C486        O493   1.259       .  A
C486        O487   1.257       .  A
C486        C793   1.435       .  S
C488        O490   1.260       .  A
C488        O494   1.258       .  A
C488        C688   1.438       .  S
C492        C655   1.441       .  S
In495       O497   2.259       .  S
In495       O498   2.250       .  S
In495       O506   2.254       .  S
In495       O500   2.249       .  S
In495       O502   2.255       .  S
In495       O503   2.262       .  S
In495       O504   2.246       .  S
In495       O507   2.248       .  S
C496        O502   1.260       .  A
C496        O504   1.259       .  A
C496        C653   1.437       .  S
O497        C505   1.259       .  A
O498        C505   1.258       .  A
C499        O506   1.260       .  A
C499        O500   1.258       .  A
C499        C770   1.436       .  S
C501        O503   1.261       .  A
C501        O507   1.258       .  A
C501        C660   1.439       .  S
C505        C649   1.440       .  S
In508       O510   2.245       .  S
In508       O511   2.266       .  S
In508       O519   2.259       .  S
In508       O513   2.248       .  S
In508       O515   2.256       .  S
In508       O516   2.248       .  S
In508       O517   2.241       .  S
In508       O520   2.260       .  S
C509        O515   1.260       .  A
C509        O517   1.258       .  A
C509        C651   1.435       .  S
O510        C518   1.258       .  A
O511        C518   1.261       .  A
C512        O519   1.260       .  A
C512        O513   1.257       .  A
C512        C798   1.437       .  S
C514        O516   1.258       .  A
C514        O520   1.259       .  A
C514        C650   1.440       .  S
C518        C678   1.439       .  S
In521       O523   2.269       .  S
In521       O524   2.221       .  S
In521       O532   2.242       .  S
In521       O526   2.259       .  S
In521       O528   2.276       .  S
In521       O529   2.235       .  S
In521       O530   2.229       .  S
In521       O533   2.256       .  S
C522        O528   1.262       .  A
C522        O530   1.256       .  A
C522        C645   1.437       .  S
O523        C531   1.261       .  A
O524        C531   1.256       .  A
C525        O532   1.257       .  A
C525        O526   1.260       .  A
C525        C718   1.436       .  S
C527        O529   1.259       .  A
C527        O533   1.261       .  A
C527        C644   1.434       .  S
C531        C647   1.434       .  S
In534       O536   2.256       .  S
In534       O537   2.234       .  S
In534       O545   2.246       .  S
In534       O539   2.258       .  S
In534       O541   2.277       .  S
In534       O542   2.218       .  S
In534       O543   2.228       .  S
In534       O546   2.270       .  S
C535        O541   1.262       .  A
C535        O543   1.255       .  A
C535        C641   1.436       .  S
O536        C544   1.261       .  A
O537        C544   1.258       .  A
C538        O545   1.256       .  A
C538        O539   1.259       .  A
C538        C725   1.436       .  S
C540        O542   1.256       .  A
C540        O546   1.262       .  A
C540        C648   1.434       .  S
C544        C639   1.433       .  S
In547       O549   2.253       .  S
In547       O550   2.234       .  S
In547       O558   2.243       .  S
In547       O552   2.257       .  S
In547       O554   2.275       .  S
In547       O555   2.219       .  S
In547       O556   2.227       .  S
In547       O559   2.264       .  S
C548        O554   1.262       .  A
C548        O556   1.256       .  A
C548        C646   1.437       .  S
O549        C557   1.261       .  A
O550        C557   1.259       .  A
C551        O558   1.256       .  A
C551        O552   1.260       .  A
C551        C657   1.436       .  S
C553        O555   1.257       .  A
C553        O559   1.262       .  A
C553        C637   1.432       .  S
C557        C635   1.432       .  S
In560       O562   2.263       .  S
In560       O563   2.223       .  S
In560       O571   2.243       .  S
In560       O565   2.259       .  S
In560       O567   2.275       .  S
In560       O568   2.233       .  S
In560       O569   2.228       .  S
In560       O572   2.253       .  S
C561        O567   1.262       .  A
C561        O569   1.256       .  A
C561        C642   1.436       .  S
O562        C570   1.261       .  A
O563        C570   1.257       .  A
C564        O571   1.256       .  A
C564        O565   1.260       .  A
C564        C664   1.436       .  S
C566        O568   1.259       .  A
C566        O572   1.261       .  A
C566        C634   1.432       .  S
C570        C638   1.433       .  S
In573       O575   2.256       .  S
In573       O576   2.237       .  S
In573       O584   2.243       .  S
In573       O578   2.257       .  S
In573       O580   2.273       .  S
In573       O581   2.221       .  S
In573       O582   2.228       .  S
In573       O585   2.266       .  S
C574        O580   1.262       .  A
C574        O582   1.256       .  A
C574        C629   1.436       .  S
O575        C583   1.261       .  A
O576        C583   1.258       .  A
C577        O584   1.257       .  A
C577        O578   1.260       .  A
C577        C694   1.436       .  S
C579        O581   1.257       .  A
C579        O585   1.262       .  A
C579        C632   1.432       .  S
C583        C643   1.434       .  S
In586       O588   2.263       .  S
In586       O589   2.222       .  S
In586       O597   2.240       .  S
In586       O591   2.258       .  S
In586       O593   2.277       .  S
In586       O594   2.236       .  S
In586       O595   2.228       .  S
In586       O598   2.253       .  S
C587        O593   1.262       .  A
C587        O595   1.256       .  A
C587        C628   1.437       .  S
O588        C596   1.262       .  A
O589        C596   1.257       .  A
C590        O597   1.256       .  A
C590        O591   1.260       .  A
C590        C699   1.436       .  S
C592        O594   1.259       .  A
C592        O598   1.261       .  A
C592        C640   1.433       .  S
C596        C631   1.433       .  S
In599       O601   2.270       .  S
In599       O602   2.222       .  S
In599       O610   2.242       .  S
In599       O604   2.257       .  S
In599       O606   2.275       .  S
In599       O607   2.238       .  S
In599       O608   2.224       .  S
In599       O611   2.251       .  S
C600        O606   1.263       .  A
C600        O608   1.256       .  A
C600        C630   1.435       .  S
O601        C609   1.262       .  A
O602        C609   1.257       .  A
C603        O610   1.257       .  A
C603        O604   1.260       .  A
C603        C674   1.435       .  S
C605        O607   1.259       .  A
C605        O611   1.260       .  A
C605        C636   1.432       .  S
C609        C625   1.435       .  S
In612       O614   2.254       .  S
In612       O615   2.233       .  S
In612       O623   2.246       .  S
In612       O617   2.262       .  S
In612       O619   2.277       .  S
In612       O620   2.222       .  S
In612       O621   2.227       .  S
In612       O624   2.271       .  S
C613        O619   1.263       .  A
C613        O621   1.256       .  A
C613        C627   1.437       .  S
O614        C622   1.261       .  A
O615        C622   1.258       .  A
C616        O623   1.256       .  A
C616        O617   1.260       .  A
C616        C682   1.438       .  S
C618        O620   1.256       .  A
C618        O624   1.262       .  A
C618        C626   1.435       .  S
C622        C633   1.432       .  S
C625        C626   1.205       .  T
C627        C628   1.208   1_545  T
C629        C630   1.207   1_565  T
C631        C632   1.204       .  T
C633        C634   1.205       .  T
C635        C636   1.205       .  T
C637        C638   1.204       .  T
C639        C640   1.205       .  T
C641        C642   1.208   1_565  T
C643        C644   1.206       .  T
C645        C646   1.208   1_565  T
C647        C648   1.204       .  T
C649        C650   1.206       .  T
C651        C652   1.206   1_556  T
C653        C654   1.207   1_556  T
C655        C656   1.207       .  T
C657        C658   1.206       .  T
C659        C660   1.209       .  T
C661        C662   1.206       .  T
C663        C664   1.207       .  T
C665        C666   1.206   1_554  T
C667        C668   1.209       .  T
C669        C670   1.205   1_556  T
C671        C672   1.207       .  T
C673        C674   1.206       .  T
C675        C676   1.208       .  T
C677        C678   1.209       .  T
C679        C680   1.206       .  T
C681        C682   1.207       .  T
C683        C684   1.208       .  T
C685        C686   1.205   1_556  T
C687        C688   1.208       .  T
C689        C690   1.205   1_556  T
C691        C692   1.206       .  T
C693        C694   1.207       .  T
C695        C696   1.207       .  T
C697        C698   1.204   1_554  T
C699        C700   1.206       .  T
C701        C702   1.205   1_556  T
C703        C704   1.206       .  T
C705        C706   1.208       .  T
C707        C708   1.206       .  T
C709        C710   1.205   1_554  T
C711        C712   1.210       .  T
C713        C714   1.205   1_554  T
C715        C716   1.207       .  T
C717        C718   1.206       .  T
C719        C720   1.209       .  T
C721        C722   1.208       .  T
C723        C724   1.206       .  T
C725        C726   1.206       .  T
C727        C728   1.207       .  T
C729        C730   1.206   1_554  T
C731        C732   1.209       .  T
C733        C734   1.205   1_554  T
C735        C736   1.205       .  T
C737        C738   1.206       .  T
C739        C740   1.207       .  T
C741        C742   1.203       .  T
C743        C744   1.205       .  T
C745        C746   1.208   1_655  T
C747        C748   1.206       .  T
C749        C750   1.209   1_655  T
C751        C752   1.205       .  T
C753        C754   1.205       .  T
C755        C756   1.205       .  T
C757        C758   1.204       .  T
C759        C760   1.205       .  T
C761        C762   1.203       .  T
C763        C764   1.207       .  T
C765        C766   1.205       .  T
C767        C768   1.207   1_655  T
C769        C770   1.206       .  T
C771        C772   1.205       .  T
C773        C774   1.206   1_455  T
C775        C776   1.204       .  T
C777        C778   1.206       .  T
C779        C780   1.205       .  T
C781        C782   1.203       .  T
C783        C784   1.207       .  T
C785        C786   1.207       .  T
C787        C788   1.206       .  T
C789        C790   1.207       .  T
C791        C792   1.203       .  T
C793        C794   1.205       .  T
C795        C796   1.204       .  T
C797        C798   1.207       .  T
C799        C800   1.204       .  T
C801        C802   1.203       .  T
C803        C804   1.204       .  T
C805        C806   1.205       .  T
C807        C808   1.206       .  T
C809        C810   1.206       .  T
C811        C812   1.204       .  T
C813        C814   1.207       .  T
C815        C816   1.204       .  T
