geometry optimzed in LAMMPS
_audit_creation_date              2020-11-30 
_audit_creation_method            'lammps2cif' 
_symmetry_space_group_name_H-M    'P1' 
_symmetry_Int_Tables_number       1 
_symmetry_cell_setting            triclinic 
loop_ 
_symmetry_equiv_pos_as_xyz 
  x,y,z 
_cell_length_a                    38.50307664 
_cell_length_b                    42.49874185573221 
_cell_length_c                    25.838401092859275 
_cell_angle_alpha                 90.1726973383117 
_cell_angle_beta                  83.15890677158464 
_cell_angle_gamma                 84.00355628423827 
loop_ 
_atom_site_label 
_atom_site_type_symbol 
_atom_site_fract_x 
_atom_site_fract_y 
_atom_site_fract_z 
_atom_site_charge 
C1          C  0.03240265  0.50181562  0.27443839     0.31600
C2          C  0.46138078  0.00222226  0.27847258     0.31600
C3          C  0.02044014  0.47372575  0.24590336    -0.04600
C4          C  0.01105647  0.50087275  0.32838410    -0.05400
C5          C  0.01522126  0.02821072  0.24879034    -0.05300
C6          C  0.48461386  0.47314162  0.24755217    -0.04600
C7          C  0.47561843  0.00174506  0.33146120    -0.05400
C8          C  0.47897647  0.02944960  0.25122085    -0.05300
C9          C  0.47929779  0.44590647  0.22236857    -0.30700
N10         N  0.00993071  0.43072382  0.20419370     0.15800
C11         C  0.03594343  0.44667968  0.21919744    -0.30700
H12         H  0.06380748  0.43901727  0.21175582     0.17800
C13         C  0.46171704  0.00304549  0.38305465    -0.29700
N14         N  0.48876839  0.00222425  0.41232848     0.14600
C15         C  0.01802974  0.50086290  0.37932570    -0.29600
C16         C  0.46805691  0.05713679  0.22787669    -0.29900
N17         N  0.49683047  0.07217424  0.21265287     0.15100
H18         H  0.44127537  0.06587474  0.22271946     0.17700
C19         C  0.02524265  0.05502252  0.22400930    -0.29900
H20         H  0.05171553  0.06170944  0.21628652     0.17700
H21         H  0.04351074  0.50137143  0.39288319     0.17700
H22         H  0.45418403  0.43801070  0.21655176     0.17800
H23         H  0.43413484  0.00459825  0.39822824     0.17700
C24         C  0.28254172  0.49911369  0.27702641     0.31600
C25         C  0.21177415  0.00049876  0.27586095     0.31600
C26         C  0.26860910  0.47106013  0.25116653    -0.04600
C27         C  0.26115886  0.50066175  0.33128572    -0.05400
C28         C  0.26408096  0.02908544  0.24845517    -0.05300
C29         C  0.23196110  0.47270954  0.25254407    -0.04600
C30         C  0.22524435  0.00103777  0.32943050    -0.05400
C31         C  0.22771146  0.02870369  0.24884154    -0.05300
C32         C  0.22435938  0.44590240  0.22852613    -0.30700
N33         N  0.25505385  0.42816344  0.21253209     0.15800
C34         C  0.28233736  0.44303436  0.22588890    -0.30700
H35         H  0.30985128  0.43414142  0.21785595     0.17800
C36         C  0.21089219  0.00152504  0.38088710    -0.29700
N37         N  0.23742244  0.00226489  0.41090527     0.14600
C38         C  0.26831178  0.50089733  0.38215479    -0.29600
C39         C  0.21565974  0.05526586  0.22328563    -0.29900
N40         N  0.24353276  0.07148453  0.20785242     0.15100
H41         H  0.18875073  0.06237172  0.21659990     0.17700
C42         C  0.27316616  0.05587181  0.22276025    -0.29900
H43         H  0.29923020  0.06353294  0.21558930     0.17700
H44         H  0.29402088  0.49986770  0.39545161     0.17700
H45         H  0.19847166  0.43967949  0.22301479     0.17800
H46         H  0.18334671  0.00147924  0.39545165     0.17700
C47         C  0.49749082  0.00526927  0.80506820     0.31600
C48         C  0.42579818  0.00660503  0.80599295     0.31600
C49         C  0.47516257  0.03334865  0.83404697    -0.04600
C50         C  0.48384464  0.00646947  0.75161094    -0.05400
C51         C  0.48146244  0.47487530  0.83037839    -0.05300
C52         C  0.43862037  0.03418015  0.83472703    -0.04600
C53         C  0.44734483  0.00711458  0.75209854    -0.05400
C54         C  0.44487646  0.47599612  0.83157276    -0.05300
C55         C  0.42386945  0.06135625  0.86167845    -0.30700
N56         N  0.45038526  0.07655442  0.87686811     0.15800
C57         C  0.48166172  0.05983021  0.86028352    -0.30700
H58         H  0.00634675  0.06634923  0.86791723     0.17800
C59         C  0.44058593  0.00674793  0.70105969    -0.29700
N60         N  0.47171765  0.00597283  0.67019894     0.14600
C61         C  0.49830304  0.00576334  0.70026017    -0.29600
C62         C  0.43480044  0.44925127  0.85653782    -0.29900
N63         N  0.46408346  0.43232358  0.87020799     0.15100
H64         H  0.40834372  0.44248784  0.86394163     0.17700
C65         C  0.49265558  0.44755479  0.85456011    -0.29900
H66         H  0.01905910  0.43903915  0.85956310     0.17700
H67         H  0.02662475  0.00574731  0.68574626     0.17700
H68         H  0.39615663  0.06960649  0.86923852     0.17800
H69         H  0.41511661  0.00659972  0.68731996     0.17700
C70         C  0.24801735  0.00210240  0.80355981     0.31600
C71         C  0.17617039  0.00461443  0.80576962     0.31600
C72         C  0.22649497  0.03111821  0.83071023    -0.04600
C73         C  0.23407117  0.00212306  0.75029361    -0.05400
C74         C  0.23140597  0.47646270  0.83060356    -0.05300
C75         C  0.18990855  0.03259404  0.83200323    -0.04600
C76         C  0.19747223  0.00337876  0.75145475    -0.05400
C77         C  0.19494874  0.47701923  0.83103472    -0.05300
C78         C  0.17597182  0.06045933  0.85753598    -0.30700
N79         N  0.20309314  0.07539272  0.87125330     0.15800
C80         C  0.23390194  0.05784269  0.85522586    -0.30700
H81         H  0.25972267  0.06420685  0.86081288     0.17800
C82         C  0.19024046  0.00346410  0.70057590    -0.29700
N83         N  0.22118120  0.00232263  0.66912058     0.14600
C84         C  0.24810301  0.00147820  0.69869914    -0.29600
C85         C  0.18524926  0.44951066  0.85355922    -0.29900
N86         N  0.21463401  0.43254682  0.86660490     0.15100
H87         H  0.15891668  0.44238119  0.86017722     0.17700
C88         C  0.24293786  0.44856652  0.85300124    -0.29900
H89         H  0.26973571  0.44053103  0.85912470     0.17700
H90         H  0.27567177  0.00068175  0.68374619     0.17700
H91         H  0.14842295  0.06927467  0.86531288     0.17800
H92         H  0.16450545  0.00452190  0.68735505     0.17700
Zr93       Zr  0.44185752  0.20546588  0.06450393     2.17500
O94         O  0.40413866  0.17867373  0.12884641    -0.49800
O95         O  0.43942774  0.16465676  0.99905917    -0.73000
O96         O  0.38127148  0.21874125  0.05788850    -0.81600
O97         O  0.01664912  0.17158792  0.13190498    -0.81500
O98         O  0.39316115  0.24767774  0.98882094    -0.77100
O99         O  0.46426067  0.16143371  0.11431103    -0.88800
O100        O  0.47446784  0.17623957  0.92596128    -0.74700
O101        O  0.44253630  0.23372324  0.98420210    -0.84200
O102        O  0.50013471  0.19620026  0.02266159    -0.83900
O103        O  0.42444130  0.26115294  0.08711057    -0.70700
O104        O  0.47565823  0.22677137  0.12582638    -0.82800
Zr105      Zr  0.01939788  0.30021343  0.01969037     2.26400
Zr106      Zr  0.42758665  0.28904644  0.00575270     2.06300
Zr107      Zr  0.03167517  0.21836811  0.08420012     2.10000
Zr108      Zr  0.50038943  0.22424248  0.94250371     1.78800
O109        O  0.05933397  0.21445484  0.16424697    -0.91600
O110        O  0.47007775  0.23675976  0.86643376    -0.39400
O111        O  0.03322049  0.24445393  0.00211808    -0.76000
O112        O  0.48581519  0.28012225  0.96059032    -0.94700
O113        O  0.46309893  0.31019796  0.06367732    -0.88000
O114        O  0.01671077  0.27406219  0.10236027    -0.90900
C115        C  0.45367383  0.15889995  0.95211318     1.02900
C116        C  0.49243914  0.15451244  0.13539576     1.15800
C117        C  0.37193615  0.24003219  0.02670074     1.06600
O118        O  0.38679799  0.30741132  0.94444038    -0.93000
O119        O  0.44142390  0.33590870  0.95763677    -0.88800
O120        O  0.49795338  0.34255014  0.96805493    -0.81900
C121        C  0.46864634  0.35099879  0.95064071     1.13200
O122        O  0.42098406  0.26433233  0.21519326    -0.95000
Zr123      Zr  0.46102801  0.28239204  0.14385305     1.88900
O124        O  0.02431814  0.33938967  0.08678826    -0.71700
O125        O  0.38307252  0.32045215  0.06482970    -0.50900
O126        O  0.41102848  0.32158081  0.16944898    -0.95600
O127        O  0.49095132  0.27234694  0.22121879    -0.52800
O128        O  0.48557749  0.33141725  0.15820547    -0.72200
C129        C  0.00657054  0.34799302  0.13059890     1.00200
O130        O  0.06578407  0.33101673  0.98179594    -0.61000
O131        O  0.07542114  0.17665911  0.04555544    -0.55800
O132        O  0.07808043  0.27380622  0.99665358    -0.92500
O133        O  0.07957215  0.25018229  0.07275226    -0.90900
O134        O  0.05011761  0.18480088  0.91405310    -0.91300
O135        O  0.04299007  0.24118567  0.87401434    -0.90000
C136        C  0.09344010  0.25476617  0.02679662     1.19000
H137        H  0.00585755  0.17403023  0.01775658     0.35000
H138        H  0.48812585  0.29065815  0.92749557     0.45800
H139        H  0.03220046  0.28209654  0.12480522     0.39300
H140        H  0.40080652  0.26399799  0.10501650     0.35800
H141        H  0.48012561  0.22018326  0.84028613     0.27600
H142        H  0.38952370  0.34234745  0.06106659     0.33500
H143        H  0.41641494  0.34075289  0.14967727     0.39500
H144        H  0.04398854  0.17466585  0.88227634     0.33900
H145        H  0.06481814  0.15662992  0.05250832     0.32800
H146        H  0.07147891  0.19272129  0.16366412     0.34500
H147        H  0.51004799  0.28636388  0.21853950     0.33400
H148        H  0.05387281  0.25789659  0.89116566     0.37400
H149        H  0.06473764  0.33040936  0.94371528     0.30200
H150        H  0.38824921  0.16782090  0.10905491     0.34400
H151        H  0.42051507  0.27983170  0.24402356     0.37300
H152        H  0.07581645  0.17942754  0.00748664     0.29900
H153        H  0.05798717  0.35326945  0.99254266     0.42700
H154        H  0.39571113  0.29547177  0.91174116     0.32800
H155        H  0.44565737  0.23181814  0.87667380     0.40400
H156        H  0.99730973  0.25274024  0.21621405     0.32300
H157        H  0.36107856  0.32074934  0.04860359     0.32300
H158        H  0.38886790  0.19574603  0.14906237     0.32600
Zr159      Zr  0.18918573  0.20462459  0.05654893     2.17500
O160        O  0.14768386  0.18488114  0.12413828    -0.49800
O161        O  0.19139101  0.16296681  0.99186115    -0.73000
O162        O  0.13126832  0.20949494  0.03280275    -0.79800
O163        O  0.26259963  0.17208401  0.13252383    -0.81500
O164        O  0.14675244  0.24292951  0.97258564    -0.77100
O165        O  0.21152543  0.15995431  0.10541652    -0.88800
O166        O  0.22802990  0.17592162  0.92129264    -0.74700
O167        O  0.19355646  0.23272466  0.97589591    -0.84200
O168        O  0.24914250  0.19672935  0.02142587    -0.83900
O169        O  0.16837152  0.26015438  0.07594244    -0.70700
O170        O  0.21785381  0.22735644  0.12266787    -0.82800
Zr171      Zr  0.26575603  0.30131660  0.02297953     2.26400
Zr172      Zr  0.17492188  0.28775163  0.99440503     2.06300
Zr173      Zr  0.27784568  0.21956788  0.08699172     2.10000
Zr174      Zr  0.25278040  0.22432690  0.94063191     1.78800
O175        O  0.30314454  0.21441347  0.16888996    -0.91600
O176        O  0.22745448  0.23533386  0.85971899    -0.39400
O177        O  0.28279391  0.24590404  0.00484126    -0.76000
O178        O  0.23523423  0.28005240  0.95682839    -0.94700
O179        O  0.20547325  0.31024707  0.05787362    -0.88000
O180        O  0.25998695  0.27483415  0.10541322    -0.90900
C181        C  0.20704272  0.15793570  0.94559663     1.02900
C182        C  0.23802518  0.15410610  0.13078224     1.15800
C183        C  0.12367014  0.23374676  0.00656515     1.06600
O184        O  0.13867339  0.30368493  0.92604082    -0.93000
O185        O  0.19045764  0.33475475  0.94791834    -0.88800
O186        O  0.24501390  0.34293244  0.96632890    -0.81900
C187        C  0.21717892  0.35051832  0.94470100     1.13200
O188        O  0.15190944  0.26632647  0.19930401    -0.95000
Zr189      Zr  0.19983475  0.28279870  0.13847453     1.88900
O190        O  0.26692893  0.33976454  0.09232248    -0.71700
O191        O  0.12359525  0.31824087  0.04117682    -0.50900
O192        O  0.15208369  0.32417331  0.16404065    -0.95600
O193        O  0.22354061  0.26947948  0.22006411    -0.52800
O194        O  0.22439025  0.33116725  0.15806864    -0.72200
C195        C  0.24871962  0.34679314  0.13635403     1.00200
O196        O  0.31149965  0.33408900  0.98911365    -0.61000
O197        O  0.32604136  0.18126077  0.05028359    -0.55800
O198        O  0.32555980  0.27690800  0.00789734    -0.92500
O199        O  0.32273098  0.25425219  0.08499304    -0.90900
O200        O  0.30441545  0.18679652  0.91622079    -0.91300
O201        O  0.29719073  0.24232489  0.87564662    -0.90000
C202        C  0.33935822  0.25904131  0.04105920     1.19000
H203        H  0.25723205  0.17452249  0.01626299     0.35000
H204        H  0.23926591  0.29046317  0.92382365     0.45800
H205        H  0.27338963  0.28324050  0.13053739     0.39300
H206        H  0.14404999  0.26178241  0.09079049     0.35800
H207        H  0.23815027  0.21784673  0.83566379     0.27600
H208        H  0.12663338  0.31652295  0.07851740     0.33500
H209        H  0.15754711  0.33310062  0.19721860     0.39500
H210        H  0.29717771  0.17233654  0.89033732     0.33900
H211        H  0.31669248  0.16045112  0.05405659     0.32800
H212        H  0.32278774  0.19738724  0.16207976     0.34500
H213        H  0.24119533  0.28446948  0.22342917     0.33400
H214        H  0.30810818  0.25838492  0.89428120     0.37400
H215        H  0.31260814  0.33284899  0.95067000     0.30200
H216        H  0.13416164  0.17042847  0.10640351     0.34400
H217        H  0.15513170  0.27505508  0.23377911     0.37300
H218        H  0.32834418  0.18511257  0.01234092     0.29900
H219        H  0.30221471  0.35624264  0.99856372     0.42700
H220        H  0.14981022  0.29109652  0.89500830     0.32800
H221        H  0.20250092  0.23134554  0.86749556     0.40400
H222        H  0.23757422  0.24869806  0.21321422     0.32300
H223        H  0.12696731  0.34051647  0.03279965     0.32300
H224        H  0.13077558  0.20353498  0.13509906     0.32600
C225        C  0.21599933  0.37884535  0.91486794    -0.11700
C226        C  0.21539020  0.40345989  0.89190040    -0.13300
C227        C  0.20060442  0.10461136  0.89730804    -0.11700
C228        C  0.20164433  0.12941045  0.91944035    -0.13300
C229        C  0.46628485  0.37940607  0.92093082    -0.11700
C230        C  0.46487828  0.40373814  0.89708925    -0.13300
C231        C  0.44731616  0.13017361  0.92716681    -0.11700
C232        C  0.44688833  0.10544423  0.90432420    -0.13300
C233        C  0.28700913  0.00151328  0.80323733    -0.16900
C234        C  0.31851797  0.00263094  0.80422516     0.07100
C235        C  0.35544800  0.00480770  0.80552333     0.09000
C236        C  0.38691078  0.00640983  0.80613343    -0.17800
C237        C  0.13711851  0.00562874  0.80664326    -0.16900
C238        C  0.10537982  0.00567239  0.80657697     0.07100
C239        C  0.06812582  0.00530441  0.80587005     0.09000
C240        C  0.03647663  0.00505583  0.80514834    -0.17800
C241        C  0.25544222  0.37470490  0.16310083    -0.11700
C242        C  0.25720813  0.39914705  0.18590395    -0.13300
C243        C  0.24189036  0.10029801  0.18157424    -0.11700
C244        C  0.24037735  0.12507009  0.15892177    -0.13300
C245        C  0.23354949  0.00304743  0.46554130    -0.16900
C246        C  0.23059259  0.00341423  0.51252959     0.07100
C247        C  0.22741101  0.00320355  0.56753538     0.09000
C248        C  0.22464752  0.00275168  0.61450164    -0.17800
C249        C  0.01405226  0.40164991  0.17716698    -0.11700
C250        C  0.01356368  0.37676230  0.15480386    -0.13300
C251        C  0.49498020  0.12588657  0.16438991    -0.11700
C252        C  0.49628130  0.10118980  0.18713773    -0.13300
C253        C  0.42229156  0.00345770  0.27927079    -0.16900
C254        C  0.39064547  0.00330216  0.27832926     0.07100
C255        C  0.35336936  0.49844836  0.27641814     0.09000
C256        C  0.32163334  0.49817525  0.27635770    -0.17800
C257        C  0.07121510  0.50241705  0.27468460    -0.16900
C258        C  0.10274002  0.50306050  0.27628556     0.07100
C259        C  0.14129025  0.99943986  0.27536861     0.09000
C260        C  0.17291537  0.99998607  0.27601009    -0.17800
C261        C  0.48534802  0.00299262  0.46687365    -0.16900
C262        C  0.48244012  0.00354938  0.51379149     0.07100
C263        C  0.47895833  0.00421595  0.56870716     0.09000
C264        C  0.47575908  0.00496172  0.61563507    -0.17800
C265        C  0.03337023  0.99953092  0.27471870     0.31600
C266        C  0.46122741  0.50085636  0.27593822     0.31600
C267        C  0.01908419  0.97153209  0.24912334    -0.04600
C268        C  0.01269711  0.00084486  0.32935609    -0.05400
C269        C  0.01301262  0.53036701  0.24984660    -0.05300
C270        C  0.48240881  0.97315386  0.25086680    -0.04600
C271        C  0.47495576  0.50073479  0.32929785    -0.05400
C272        C  0.47669793  0.52958064  0.25002762    -0.05300
C273        C  0.47430906  0.94640529  0.22726683    -0.30700
N274        N  0.00468975  0.92815707  0.21288380     0.15800
C275        C  0.03233141  0.94309577  0.22473904    -0.30700
H276        H  0.05973567  0.93385360  0.21669663     0.17800
C277        C  0.46087599  0.49982614  0.38068820    -0.29700
N278        N  0.48755289  0.49990260  0.41052726     0.14600
C279        C  0.02057779  0.00112693  0.37982353    -0.29600
C280        C  0.46410438  0.55635427  0.22556806    -0.29900
N281        N  0.49161003  0.57302937  0.21032235     0.15100
H282        H  0.43710193  0.56314465  0.21904429     0.17700
C283        C  0.02177988  0.55771395  0.22560705    -0.29900
H284        H  0.04780494  0.56543825  0.21820700     0.17700
H285        H  0.04649710  0.00039370  0.39234504     0.17700
H286        H  0.44824027  0.94032357  0.22252044     0.17800
H287        H  0.43343588  0.49913042  0.39533965     0.17700
C288        C  0.28321127  0.00122860  0.27498610     0.31600
C289        C  0.21061285  0.50198785  0.27922804     0.31600
C290        C  0.27139575  0.97258885  0.24803827    -0.04600
C291        C  0.26160794  0.00141988  0.32888789    -0.05400
C292        C  0.26478192  0.52761607  0.25023887    -0.05300
C293        C  0.23498874  0.97229097  0.24863261    -0.04600
C294        C  0.22453944  0.50216069  0.33241176    -0.05400
C295        C  0.22818523  0.52903082  0.25139937    -0.05300
C296        C  0.22962268  0.94499991  0.22365713    -0.30700
N297        N  0.26146126  0.92897340  0.20800776     0.15800
C298        C  0.28722958  0.94537578  0.22242731    -0.30700
H299        H  0.31515506  0.93794499  0.21517085     0.17800
C300        C  0.21040861  0.50337765  0.38392993    -0.29700
N301        N  0.23730669  0.50254918  0.41351436     0.14600
C302        C  0.26841733  0.00216859  0.37989195    -0.29600
C303        C  0.21720261  0.55659992  0.22777854    -0.29900
N304        N  0.24593542  0.57167426  0.21248773     0.15100
H305        H  0.19038751  0.56534089  0.22281751     0.17700
C306        C  0.27510567  0.55439676  0.22573740    -0.29900
H307        H  0.30160734  0.56109867  0.21879379     0.17700
H308        H  0.29387751  0.00272433  0.39349668     0.17700
H309        H  0.20451007  0.93719139  0.21758877     0.17800
H310        H  0.18279250  0.50468236  0.39883026     0.17700
C311        C  0.49870695  0.50208645  0.80243485     0.31600
C312        C  0.42685374  0.50439187  0.80476344     0.31600
C313        C  0.47715605  0.53122447  0.82902737    -0.04600
C314        C  0.48475085  0.50172201  0.74927485    -0.05400
C315        C  0.48069791  0.97689347  0.83001338    -0.05300
C316        C  0.44056352  0.53263850  0.83031151    -0.04600
C317        C  0.44814550  0.50290045  0.75051454    -0.05400
C318        C  0.44422517  0.97761456  0.83040145    -0.05300
C319        C  0.42665268  0.56085530  0.85469449    -0.30700
N320        N  0.45378220  0.57595562  0.86794151     0.15800
C321        C  0.48458345  0.55825481  0.85255085    -0.30700
H322        H  0.01112196  0.56418938  0.85948883     0.17800
C323        C  0.44088341  0.50250673  0.69974912    -0.29700
N324        N  0.47181935  0.50105094  0.66829904     0.14600
C325        C  0.49877747  0.50057159  0.69772200    -0.29600
C326        C  0.43433281  0.95020562  0.85307963    -0.29900
N327        N  0.46363219  0.93317365  0.86628910     0.15100
H328        H  0.40795099  0.94317797  0.85960431     0.17700
C329        C  0.49204223  0.94901650  0.85255451    -0.29900
H330        H  0.01901348  0.94145682  0.85994730     0.17700
H331        H  0.02691527  0.50130869  0.68290447     0.17700
H332        H  0.39911216  0.56974011  0.86219381     0.17800
H333        H  0.41515658  0.50323849  0.68657965     0.17700
C334        C  0.24791221  0.50516776  0.80629591     0.31600
C335        C  0.17631249  0.50617186  0.80731032     0.31600
C336        C  0.22538278  0.53292365  0.83615187    -0.04600
C337        C  0.23414733  0.50677386  0.75284483    -0.05400
C338        C  0.23066226  0.97476762  0.83107598    -0.05300
C339        C  0.18887863  0.53354379  0.83672103    -0.04600
C340        C  0.19768163  0.50728926  0.75349442    -0.05400
C341        C  0.19406957  0.97603603  0.83222759    -0.05300
C342        C  0.17377712  0.56041225  0.86418947    -0.30700
N343        N  0.20002104  0.57568586  0.88003173     0.15800
C344        C  0.23148983  0.55925998  0.86326828    -0.30700
H345        H  0.25689291  0.56624606  0.86974765     0.17800
C346        C  0.19067358  0.50726312  0.70257887    -0.29700
N347        N  0.22166081  0.50674944  0.67147638     0.14600
C348        C  0.24838924  0.50640809  0.70134800    -0.29600
C349        C  0.18369868  0.94971576  0.85821377    -0.29900
N350        N  0.21282083  0.93281068  0.87245383     0.15100
H351        H  0.15711777  0.94331986  0.86619389     0.17700
C352        C  0.24156808  0.94771384  0.85625876    -0.29900
H353        H  0.26830324  0.93944279  0.86238252     0.17700
H354        H  0.27602028  0.50535979  0.68665253     0.17700
H355        H  0.14600113  0.56846496  0.87149780     0.17800
H356        H  0.16513885  0.50702386  0.68907972     0.17700
Zr357      Zr  0.43835766  0.70489244  0.05395844     2.17500
O358        O  0.39621332  0.68796224  0.12321487    -0.49800
O359        O  0.44181039  0.66273020  0.98994523    -0.73000
O360        O  0.38183733  0.70777091  0.02487185    -0.81600
O361        O  0.01009822  0.67371286  0.13559981    -0.81500
O362        O  0.39717127  0.74309706  0.96795445    -0.77100
O363        O  0.45921474  0.66016415  0.10388593    -0.88800
O364        O  0.47812917  0.67638193  0.91945839    -0.74700
O365        O  0.44360697  0.73316844  0.97365784    -0.84200
O366        O  0.49855402  0.69695803  0.02000381    -0.83900
O367        O  0.41724276  0.76038171  0.07300278    -0.70700
O368        O  0.46652428  0.72761255  0.12060442    -0.82800
Zr369      Zr  0.01511571  0.80190026  0.02429097     2.26400
Zr370      Zr  0.42457266  0.78806342  0.99185772     2.06300
Zr371      Zr  0.02695955  0.72044070  0.08924108     2.10000
Zr372      Zr  0.50293270  0.72471409  0.93934854     1.78800
O373        O  0.05195557  0.71648956  0.17157541    -0.91600
O374        O  0.47804819  0.73674885  0.85833340    -0.39400
O375        O  0.03274746  0.74649846  0.00699453    -0.76000
O376        O  0.48526602  0.78044972  0.95586528    -0.94700
O377        O  0.45432980  0.81056455  0.05633587    -0.88000
O378        O  0.00817152  0.77553519  0.10672987    -0.90900
C379        C  0.45743245  0.65806567  0.94358171     1.02900
C380        C  0.48553756  0.65438291  0.12965169     1.15800
C381        C  0.37408131  0.73294517  0.00093520     1.06600
O382        O  0.38818260  0.80415068  0.92372176    -0.93000
O383        O  0.44061711  0.83461537  0.94500199    -0.88800
O384        O  0.49345139  0.84430672  0.96866151    -0.81900
C385        C  0.46648017  0.85123376  0.94466890     1.13200
O386        O  0.39860343  0.76538762  0.19351261    -0.95000
Zr387      Zr  0.44789665  0.78293465  0.13668755     1.88900
O388        O  0.01575190  0.83931873  0.09522316    -0.71700
O389        O  0.37379500  0.81862267  0.03990950    -0.50900
O390        O  0.40029462  0.82416869  0.16427518    -0.95600
O391        O  0.47033964  0.76900692  0.21889700    -0.52800
O392        O  0.47208105  0.83143495  0.15724773    -0.72200
C393        C  0.99679883  0.84656916  0.13857872     1.00200
O394        O  0.06042986  0.83546510  0.99214333    -0.61000
O395        O  0.07506059  0.68170142  0.05382265    -0.55800
O396        O  0.07529981  0.77820910  0.01012213    -0.92500
O397        O  0.07170049  0.75552360  0.08715727    -0.90900
O398        O  0.05429190  0.68451641  0.91943528    -0.91300
O399        O  0.05100469  0.74167854  0.87976267    -0.90000
C400        C  0.08871916  0.76015971  0.04340220     1.19000
H401        H  0.00793482  0.67491123  0.01792723     0.35000
H402        H  0.48977048  0.79107836  0.92315281     0.45800
H403        H  0.02119887  0.78388257  0.13238748     0.39300
H404        H  0.39284028  0.76200205  0.08730455     0.35800
H405        H  0.48176036  0.71657667  0.83819759     0.27600
H406        H  0.37809776  0.81793233  0.07683508     0.33500
H407        H  0.40478396  0.83118996  0.19922763     0.39500
H408        H  0.04940401  0.67413392  0.88710020     0.33900
H409        H  0.06568192  0.66094714  0.05849351     0.32800
H410        H  0.07020014  0.69816586  0.16663978     0.34500
H411        H  0.48501602  0.78595879  0.22590259     0.33400
H412        H  0.05987523  0.75908882  0.89820558     0.37400
H413        H  0.06155146  0.83488716  0.95366954     0.30200
H414        H  0.38243163  0.67324407  0.10659370     0.34400
H415        H  0.40099712  0.77320890  0.22891093     0.37300
H416        H  0.07731999  0.68501353  0.01572777     0.29900
H417        H  0.05087868  0.85740885  0.00262614     0.42700
H418        H  0.39809258  0.79040573  0.89338175     0.32800
H419        H  0.45230407  0.74022999  0.86848601     0.40400
H420        H  0.98254139  0.74892409  0.21524282     0.32300
H421        H  0.37642490  0.84077756  0.02979333     0.32300
H422        H  0.37971676  0.70716252  0.13220483     0.32600
Zr423      Zr  0.19025400  0.70559627  0.06652187     2.17500
O424        O  0.15283797  0.67904113  0.13166054    -0.49800
O425        O  0.18688808  0.66508521  0.00080828    -0.73000
O426        O  0.12961058  0.71873204  0.05981155    -0.79800
O427        O  0.26741108  0.67119661  0.13410633    -0.81500
O428        O  0.14244578  0.74764050  0.99122208    -0.77100
O429        O  0.21330787  0.66143010  0.11561481    -0.88800
O430        O  0.22373891  0.67539241  0.92888202    -0.74700
O431        O  0.19095005  0.73407156  0.98636280    -0.84200
O432        O  0.24854714  0.69604608  0.02463724    -0.83900
O433        O  0.17305477  0.76135162  0.08939231    -0.70700
O434        O  0.22442220  0.72688704  0.12739612    -0.82800
Zr435      Zr  0.27011685  0.80008281  0.02303496     2.26400
Zr436      Zr  0.17620216  0.78943719  0.00818463     2.06300
Zr437      Zr  0.28270530  0.71738162  0.08504333     2.10000
Zr438      Zr  0.24870576  0.72411407  0.94447684     1.78800
O439        O  0.31087358  0.71528347  0.16475752    -0.91600
O440        O  0.21844486  0.73542695  0.86803210    -0.39400
O441        O  0.28273957  0.74444884  0.00412667    -0.76000
O442        O  0.23428536  0.78009822  0.96268832    -0.94700
O443        O  0.21194561  0.81059807  0.06584365    -0.88000
O444        O  0.26851454  0.77284685  0.10483401    -0.90900
C445        C  0.20208312  0.65860687  0.95453716     1.02900
C446        C  0.24139576  0.65457721  0.13698892     1.15800
C447        C  0.12080886  0.74034164  0.02884979     1.06600
O448        O  0.13541143  0.80871280  0.94744940    -0.93000
O449        O  0.18976643  0.83616686  0.95952579    -0.88800
O450        O  0.24597626  0.84311125  0.97118308    -0.81900
C451        C  0.21682934  0.85148065  0.95325005     1.13200
O452        O  0.17142711  0.76344734  0.21829659    -0.95000
Zr453      Zr  0.20989597  0.78245600  0.14583227     1.88900
O454        O  0.27658333  0.83752656  0.09195225    -0.71700
O455        O  0.13107294  0.82040546  0.06698157    -0.50900
O456        O  0.15850881  0.82008563  0.17197410    -0.95600
O457        O  0.23966179  0.77410481  0.22367246    -0.52800
O458        O  0.23419446  0.83160440  0.15941181    -0.72200
C459        C  0.25893370  0.84601212  0.13590635     1.00200
O460        O  0.31528042  0.83140197  0.98256721    -0.61000
O461        O  0.32565225  0.67504851  0.04648687    -0.55800
O462        O  0.32836841  0.77377353  0.99575415    -0.92500
O463        O  0.33148251  0.74822489  0.06999638    -0.90900
O464        O  0.30028023  0.68728714  0.91591114    -0.91300
O465        O  0.29008306  0.74103614  0.87409377    -0.90000
C466        C  0.34425674  0.75369410  0.02373530     1.19000
H467        H  0.25549225  0.67369121  0.01876385     0.35000
H468        H  0.23652802  0.79072860  0.92967503     0.45800
H469        H  0.28464232  0.78028389  0.12686041     0.39300
H470        H  0.14944226  0.76420451  0.10740528     0.35800
H471        H  0.22817582  0.71826528  0.84275911     0.27600
H472        H  0.14267660  0.83874642  0.07739691     0.33500
H473        H  0.16453899  0.83175023  0.20234106     0.39500
H474        H  0.29315124  0.67450809  0.88764097     0.33900
H475        H  0.31564571  0.65511110  0.05653464     0.32800
H476        H  0.32143412  0.69313472  0.16686286     0.34500
H477        H  0.26013036  0.78652926  0.21868996     0.33400
H478        H  0.30084543  0.75840019  0.88968621     0.37400
H479        H  0.31287048  0.83135154  0.94483933     0.30200
H480        H  0.13711180  0.66782428  0.11211909     0.34400
H481        H  0.17133316  0.77859069  0.24752859     0.37300
H482        H  0.32435050  0.67646753  0.00853975     0.29900
H483        H  0.30785853  0.85350708  0.99454136     0.42700
H484        H  0.14370598  0.79652961  0.91479555     0.32800
H485        H  0.19391121  0.73097079  0.87875218     0.40400
H486        H  0.25004917  0.75176583  0.22080223     0.32300
H487        H  0.11375750  0.82963011  0.04444854     0.32300
H488        H  0.13735338  0.69615931  0.15144181     0.32600
C489        C  0.21450816  0.88007119  0.92385263    -0.11700
C490        C  0.21332195  0.90441242  0.89994244    -0.13300
C491        C  0.19604702  0.60466762  0.90741698    -0.11700
C492        C  0.19597313  0.62960937  0.92997874    -0.13300
C493        C  0.46524409  0.87970869  0.91522024    -0.11700
C494        C  0.46434025  0.90423103  0.89199630    -0.13300
C495        C  0.45224328  0.62967173  0.91694503    -0.11700
C496        C  0.45125919  0.60506705  0.89425805    -0.13300
C497        C  0.28691325  0.50477996  0.80583396    -0.16900
C498        C  0.31866652  0.50489958  0.80572862     0.07100
C499        C  0.35601751  0.50522372  0.80573064     0.09000
C500        C  0.38778377  0.50525538  0.80559213    -0.17800
C501        C  0.13753404  0.50601201  0.80714927    -0.16900
C502        C  0.10614190  0.50468457  0.80582980     0.07100
C503        C  0.06932601  0.50271742  0.80380210     0.09000
C504        C  0.03789230  0.50163159  0.80245105    -0.17800
C505        C  0.26609599  0.87458035  0.16014164    -0.11700
C506        C  0.26612764  0.89964405  0.18195854    -0.13300
C507        C  0.24529198  0.60090694  0.18767643    -0.11700
C508        C  0.24398203  0.62581881  0.16558877    -0.13300
C509        C  0.23374818  0.50313562  0.46809961    -0.16900
C510        C  0.23105734  0.50370352  0.51503548     0.07100
C511        C  0.22813481  0.50462981  0.56996365     0.09000
C512        C  0.22539637  0.50561115  0.61689328    -0.17800
C513        C  0.00619296  0.89875794  0.18771176    -0.11700
C514        C  0.00377971  0.87419839  0.16574148    -0.13300
C515        C  0.48750433  0.62578056  0.15902980    -0.11700
C516        C  0.48942954  0.60149383  0.18303947    -0.13300
C517        C  0.42233898  0.50004613  0.27651299    -0.16900
C518        C  0.39066226  0.49927125  0.27658662     0.07100
C519        C  0.35354374  0.00252441  0.27651221     0.09000
C520        C  0.32200995  0.00181100  0.27520492    -0.17800
C521        C  0.07244244  0.99857435  0.27353604    -0.16900
C522        C  0.10410717  0.99879286  0.27417142     0.07100
C523        C  0.13986891  0.50347418  0.27844280     0.09000
C524        C  0.17154159  0.50324579  0.27963301    -0.17800
C525        C  0.48387809  0.49939487  0.46506196    -0.16900
C526        C  0.48098565  0.49923581  0.51197120     0.07100
C527        C  0.47791007  0.49954908  0.56686322     0.09000
C528        C  0.47525689  0.50017194  0.61376291    -0.17800
C529        C  0.53265191  0.50207132  0.27464026     0.31600
C530        C  0.96139217  0.00238083  0.27893533     0.31600
C531        C  0.52101463  0.47361027  0.24677290    -0.04600
C532        C  0.51129418  0.50136159  0.32858207    -0.05400
C533        C  0.51561447  0.02785411  0.24979730    -0.05300
C534        C  0.98399908  0.47363112  0.24671248    -0.04600
C535        C  0.97605001  0.00225114  0.33152265    -0.05400
C536        C  0.97856920  0.02958275  0.25087132    -0.05300
C537        C  0.97828661  0.44682629  0.22069045    -0.30700
N538        N  0.51113601  0.42999115  0.20636345     0.15800
C539        C  0.53688272  0.44642852  0.22090999    -0.30700
H540        H  0.56481274  0.43900703  0.21370273     0.17800
C541        C  0.96258393  0.00328441  0.38324645    -0.29700
N542        N  0.98991909  0.00261758  0.41191699     0.14600
C543        C  0.51837952  0.50082746  0.37948891    -0.29600
C544        C  0.96728447  0.05707161  0.22722439    -0.29900
N545        N  0.99586904  0.07220463  0.21120518     0.15100
H546        H  0.94038415  0.06563432  0.22247644     0.17700
C547        C  0.52598520  0.05474522  0.22566502    -0.29900
H548        H  0.55254083  0.06129432  0.21845102     0.17700
H549        H  0.54390857  0.50105087  0.39301397     0.17700
H550        H  0.95302271  0.43933112  0.21466931     0.17800
H551        H  0.93511197  0.00453864  0.39892890     0.17700
C552        C  0.78258591  0.49958027  0.27718780     0.31600
C553        C  0.71216482  0.00034104  0.27495505     0.31600
C554        C  0.76881571  0.47154195  0.25114406    -0.04600
C555        C  0.76141105  0.50085422  0.33155350    -0.05400
C556        C  0.76473594  0.02872203  0.24787817    -0.05300
C557        C  0.73218233  0.47297749  0.25271938    -0.04600
C558        C  0.72543305  0.00101038  0.32857724    -0.05400
C559        C  0.72834537  0.02847928  0.24803425    -0.05300
C560        C  0.72476933  0.44606491  0.22874964    -0.30700
N561        N  0.75557496  0.42850112  0.21260950     0.15800
C562        C  0.78273569  0.44359664  0.22580925    -0.30700
H563        H  0.81029599  0.43485620  0.21780394     0.17800
C564        C  0.71081813  0.00197265  0.37986510    -0.29700
N565        N  0.73720502  0.00275713  0.41008969     0.14600
C566        C  0.76871534  0.50114921  0.38236009    -0.29600
C567        C  0.71640426  0.05540090  0.22336433    -0.29900
N568        N  0.74435134  0.07161641  0.20844232     0.15100
H569        H  0.68950059  0.06277529  0.21696688     0.17700
C570        C  0.77394949  0.05573147  0.22299080    -0.29900
H571        H  0.80004176  0.06337323  0.21618992     0.17700
H572        H  0.79445560  0.50035417  0.39550595     0.17700
H573        H  0.69893009  0.43960018  0.22353668     0.17800
H574        H  0.68320098  0.00220408  0.39418399     0.17700
C575        C  0.99757964  0.00531093  0.80481422     0.31600
C576        C  0.92603051  0.00623968  0.80482530     0.31600
C577        C  0.97490628  0.03318226  0.83389804    -0.04600
C578        C  0.98425144  0.00661028  0.75113412    -0.05400
C579        C  0.98148600  0.47492081  0.82940555    -0.05300
C580        C  0.93843590  0.03380046  0.83407121    -0.04600
C581        C  0.94782049  0.00703553  0.75116297    -0.05400
C582        C  0.94489132  0.47630491  0.83023907    -0.05300
C583        C  0.92327773  0.06063370  0.86165566    -0.30700
N584        N  0.94950643  0.07585711  0.87772011     0.15800
C585        C  0.98096920  0.05945035  0.86109712    -0.30700
H586        H  0.50719256  0.06664147  0.86648925     0.17800
C587        C  0.94130700  0.00706446  0.69999189    -0.29700
N588        N  0.97253224  0.00676551  0.66951027     0.14600
C589        C  0.99893198  0.00645914  0.69991543    -0.29600
C590        C  0.93449926  0.44956385  0.85477155    -0.29900
N591        N  0.96358026  0.43242722  0.86861601     0.15100
H592        H  0.90795069  0.44299716  0.86195043     0.17700
C593        C  0.99235276  0.44749643  0.85352924    -0.29900
H594        H  0.51948440  0.43922505  0.86009657     0.17700
H595        H  0.52597499  0.00469807  0.68578850     0.17700
H596        H  0.89549119  0.06862687  0.86905530     0.17800
H597        H  0.91594692  0.00690804  0.68590006     0.17700
C598        C  0.74820407  0.00244081  0.80171053     0.31600
C599        C  0.67627990  0.00490622  0.80489587     0.31600
C600        C  0.72683659  0.03139454  0.82912637    -0.04600
C601        C  0.73389550  0.00264267  0.74875122    -0.05400
C602        C  0.73143513  0.47659162  0.83136266    -0.05300
C603        C  0.69020712  0.03289010  0.83100115    -0.04600
C604        C  0.69727287  0.00383451  0.75039471    -0.05400
C605        C  0.69493946  0.47703246  0.83202802    -0.05300
C606        C  0.67656081  0.06099139  0.85611724    -0.30700
N607        N  0.70390330  0.07599475  0.86891614     0.15800
C608        C  0.73455845  0.05829796  0.85269853    -0.30700
H609        H  0.76049922  0.06469903  0.85746719     0.17800
C610        C  0.68968846  0.00440931  0.69969916    -0.29700
N611        N  0.72045541  0.00366600  0.66794346     0.14600
C612        C  0.74759400  0.00261611  0.69709441    -0.29600
C613        C  0.68539344  0.44957493  0.85497677    -0.29900
N614        N  0.71487808  0.43278451  0.86808610     0.15100
H615        H  0.65911423  0.44233322  0.86171808     0.17700
C616        C  0.74308998  0.44885359  0.85409362    -0.29900
H617        H  0.76994098  0.44091245  0.86005160     0.17700
H618        H  0.77507839  0.00209490  0.68180287     0.17700
H619        H  0.64906624  0.06993885  0.86415424     0.17800
H620        H  0.66384940  0.00553846  0.68681008     0.17700
Zr621      Zr  0.94022196  0.20596994  0.06371544     2.17500
O622        O  0.90185234  0.18341234  0.13268067    -0.49800
O623        O  0.93798699  0.16461664  0.99915945    -0.73000
O624        O  0.87997405  0.21573269  0.05308886    -0.81600
O625        O  0.51855715  0.17102583  0.13205846    -0.81500
O626        O  0.89394852  0.24518583  0.98599289    -0.77100
O627        O  0.96278820  0.16157984  0.11279450    -0.88800
O628        O  0.97410340  0.17519970  0.92648090    -0.74700
O629        O  0.94191388  0.23320245  0.98217998    -0.84200
O630        O  0.99878577  0.19641102  0.02298331    -0.83900
O631        O  0.92209250  0.26203208  0.08361854    -0.70700
O632        O  0.97308844  0.22820848  0.12529408    -0.82800
Zr633      Zr  0.52140574  0.30008690  0.02140723     2.26400
Zr634      Zr  0.92602538  0.28862538  0.00111074     2.06300
Zr635      Zr  0.53394104  0.21741458  0.08349322     2.10000
Zr636      Zr  0.00003407  0.22349724  0.94172171     1.78800
O637        O  0.56370961  0.21340647  0.16164816    -0.91600
O638        O  0.97088402  0.23429787  0.86403233    -0.39400
O639        O  0.53450179  0.24444393  0.00234435    -0.76000
O640        O  0.98484622  0.27955053  0.95796040    -0.94700
O641        O  0.96044679  0.31074228  0.05986170    -0.88000
O642        O  0.51961728  0.27297880  0.10330408    -0.90900
C643        C  0.95272318  0.15832179  0.95259092     1.02900
C644        C  0.99079374  0.15478865  0.13440419     1.15800
C645        C  0.87182609  0.23800074  0.02310689     1.06600
O646        O  0.88827904  0.30481856  0.93459398    -0.93000
O647        O  0.94011183  0.33565246  0.95399862    -0.88800
O648        O  0.99645162  0.34233385  0.96550756    -0.81900
C649        C  0.96731134  0.35076112  0.94766058     1.13200
O650        O  0.91522015  0.26621842  0.20946808    -0.95000
Zr651      Zr  0.95769868  0.28401765  0.14111353     1.88900
O652        O  0.52608520  0.33896015  0.08907415    -0.71700
O653        O  0.87730766  0.32015525  0.05205545    -0.50900
O654        O  0.90859933  0.32346405  0.17031552    -0.95600
O655        O  0.98667304  0.27499466  0.21951538    -0.52800
O656        O  0.98210045  0.33332062  0.15425008    -0.72200
C657        C  0.50912090  0.34680496  0.13375940     1.00200
O658        O  0.56719444  0.33178752  0.98426639    -0.61000
O659        O  0.57682842  0.17555859  0.04330834    -0.55800
O660        O  0.57981144  0.27351236  0.99590248    -0.92500
O661        O  0.58176727  0.24929252  0.07134036    -0.90900
O662        O  0.55008273  0.18541802  0.91378139    -0.91300
O663        O  0.54308122  0.24114486  0.87381493    -0.90000
C664        C  0.59534551  0.25411067  0.02533962     1.19000
H665        H  0.50712911  0.17386319  0.01668383     0.35000
H666        H  0.98755688  0.28990150  0.92472059     0.45800
H667        H  0.53536996  0.28071387  0.12564539     0.39300
H668        H  0.89824113  0.26483413  0.10070052     0.35800
H669        H  0.98208834  0.21785083  0.83836683     0.27600
H670        H  0.88773916  0.32854892  0.08166195     0.33500
H671        H  0.91649413  0.33529406  0.19906751     0.39500
H672        H  0.54368243  0.17548193  0.88201729     0.33900
H673        H  0.56601023  0.15565123  0.05048087     0.32800
H674        H  0.57376455  0.19103455  0.16258095     0.34500
H675        H  0.00697272  0.28764971  0.21543903     0.33400
H676        H  0.55507203  0.25710644  0.89091017     0.37400
H677        H  0.56619451  0.33139051  0.94616509     0.30200
H678        H  0.88696026  0.17016959  0.11506099     0.34400
H679        H  0.91807615  0.27818535  0.24136030     0.37300
H680        H  0.57670360  0.17850405  0.00535915     0.29900
H681        H  0.55902298  0.35391724  0.99538817     0.42700
H682        H  0.89624423  0.28982250  0.90512526     0.32800
H683        H  0.94670489  0.22849286  0.87335188     0.40400
H684        H  0.50327645  0.25075763  0.21555326     0.32300
H685        H  0.87261080  0.33894345  0.03041809     0.32300
H686        H  0.88564484  0.20144650  0.14846804     0.32600
Zr687      Zr  0.69084861  0.20422926  0.05580619     2.17500
O688        O  0.64967482  0.18390770  0.12322034    -0.49800
O689        O  0.69336535  0.16299101  0.99015458    -0.73000
O690        O  0.63323219  0.20881052  0.03057925    -0.79800
O691        O  0.76302935  0.17219752  0.13325221    -0.81500
O692        O  0.64878342  0.24274332  0.97120369    -0.77100
O693        O  0.71291822  0.15926160  0.10404380    -0.88800
O694        O  0.73013061  0.17609640  0.91983640    -0.74700
O695        O  0.69571255  0.23243608  0.97538745    -0.84200
O696        O  0.75087443  0.19637138  0.02120828    -0.83900
O697        O  0.66994614  0.25966645  0.07588621    -0.70700
O698        O  0.71932935  0.22693541  0.12237344    -0.82800
Zr699      Zr  0.76740790  0.30125950  0.02363947     2.26400
Zr700      Zr  0.67687976  0.28733885  0.99447337     2.06300
Zr701      Zr  0.77945051  0.21911947  0.08699837     2.10000
Zr702      Zr  0.75508540  0.22406690  0.94057616     1.78800
O703        O  0.80724994  0.21387813  0.16681780    -0.91600
O704        O  0.73185067  0.23520009  0.85814159    -0.39400
O705        O  0.78418196  0.24582230  0.00536215    -0.76000
O706        O  0.73726438  0.27987679  0.95703359    -0.94700
O707        O  0.70708852  0.30994523  0.05824310    -0.88000
O708        O  0.76155865  0.27440346  0.10579487    -0.90900
C709        C  0.70899167  0.15813761  0.94381589     1.02900
C710        C  0.73889560  0.15386534  0.13055772     1.15800
C711        C  0.62560778  0.23322486  0.00467625     1.06600
O712        O  0.64046391  0.30312575  0.92633601    -0.93000
O713        O  0.69207741  0.33454650  0.94863561    -0.88800
O714        O  0.74623226  0.34331512  0.96804195    -0.81900
C715        C  0.71846334  0.35067895  0.94611190     1.13200
O716        O  0.65338553  0.26600698  0.19968019    -0.95000
Zr717      Zr  0.70134859  0.28238220  0.13870528     1.88900
O718        O  0.76859187  0.33940697  0.09353064    -0.71700
O719        O  0.62572928  0.31828755  0.04080008    -0.50900
O720        O  0.65349729  0.32365924  0.16458723    -0.95600
O721        O  0.72632083  0.26899223  0.21936302    -0.52800
O722        O  0.72533112  0.33112265  0.15840117    -0.72200
C723        C  0.74994801  0.34662860  0.13717401     1.00200
O724        O  0.81360069  0.33357640  0.99016744    -0.61000
O725        O  0.82601629  0.17954639  0.04936802    -0.55800
O726        O  0.82743850  0.27762073  0.00714251    -0.92500
O727        O  0.82417453  0.25431525  0.08350843    -0.90900
O728        O  0.80578733  0.18504335  0.91901096    -0.91300
O729        O  0.80197704  0.24050826  0.87810490    -0.90000
C730        C  0.84083250  0.25888207  0.03944414     1.19000
H731        H  0.75884741  0.17414725  0.01599728     0.35000
H732        H  0.74121953  0.29049965  0.92421248     0.45800
H733        H  0.77497015  0.28272601  0.13098605     0.39300
H734        H  0.64557189  0.26117080  0.09050799     0.35800
H735        H  0.74003939  0.21613324  0.83612820     0.27600
H736        H  0.62719332  0.31478336  0.07829125     0.33500
H737        H  0.65682627  0.33007389  0.20039987     0.39500
H738        H  0.80203764  0.17547650  0.88539344     0.33900
H739        H  0.81592077  0.15908016  0.05334477     0.32800
H740        H  0.82068915  0.19264952  0.16409804     0.34500
H741        H  0.74390158  0.28410470  0.22236942     0.33400
H742        H  0.80126816  0.26360124  0.88403206     0.37400
H743        H  0.81427622  0.33289869  0.95175184     0.30200
H744        H  0.63548837  0.17022747  0.10514209     0.34400
H745        H  0.65940992  0.27042879  0.23499020     0.37300
H746        H  0.82817678  0.18342616  0.01145353     0.29900
H747        H  0.80469695  0.35568443  0.00050888     0.42700
H748        H  0.65213173  0.29115748  0.89496470     0.32800
H749        H  0.70614565  0.23449312  0.86609054     0.40400
H750        H  0.74047518  0.24830917  0.21199899     0.32300
H751        H  0.63064516  0.34053047  0.03546795     0.32300
H752        H  0.63333149  0.20268080  0.13546965     0.32600
C753        C  0.71691756  0.37913625  0.91659356    -0.11700
C754        C  0.71590135  0.40374225  0.89356811    -0.13300
C755        C  0.70180714  0.10522708  0.89482876    -0.11700
C756        C  0.70326992  0.12988683  0.91714319    -0.13300
C757        C  0.96509656  0.37928509  0.91843858    -0.11700
C758        C  0.96398824  0.40375485  0.89508870    -0.13300
C759        C  0.94616587  0.12949880  0.92806216    -0.11700
C760        C  0.94569698  0.10471054  0.90537308    -0.13300
C761        C  0.78722493  0.00199658  0.80079254    -0.16900
C762        C  0.81874937  0.00312036  0.80159056     0.07100
C763        C  0.85571291  0.00494431  0.80316491     0.09000
C764        C  0.88719293  0.00612152  0.80432828    -0.17800
C765        C  0.63718197  0.00586122  0.80598126    -0.16900
C766        C  0.60544508  0.00574848  0.80584961     0.07100
C767        C  0.56817124  0.00518095  0.80526899     0.09000
C768        C  0.53648262  0.00484996  0.80487917    -0.17800
C769        C  0.75642970  0.37469002  0.16387877    -0.11700
C770        C  0.75795860  0.39931292  0.18636814    -0.13300
C771        C  0.74279779  0.10039584  0.18212768    -0.11700
C772        C  0.74118497  0.12501169  0.15909341    -0.13300
C773        C  0.73306540  0.00372149  0.46464555    -0.16900
C774        C  0.72986261  0.00428806  0.51157393     0.07100
C775        C  0.72644734  0.00444732  0.56649365     0.09000
C776        C  0.72366664  0.00418148  0.61340658    -0.17800
C777        C  0.51574056  0.40073449  0.17991635    -0.11700
C778        C  0.51573456  0.37567859  0.15790202    -0.13300
C779        C  0.99346864  0.12597963  0.16299230    -0.11700
C780        C  0.99496474  0.10121757  0.18559994    -0.13300
C781        C  0.92232862  0.00337260  0.28060625    -0.16900
C782        C  0.89070428  0.00307051  0.28000889     0.07100
C783        C  0.85327185  0.49917250  0.27611947     0.09000
C784        C  0.82158930  0.49880614  0.27622512    -0.17800
C785        C  0.57141192  0.50283888  0.27504699    -0.16900
C786        C  0.60290455  0.50339266  0.27695707     0.07100
C787        C  0.64158573  0.99894830  0.27500873     0.09000
C788        C  0.67325355  0.99979148  0.27509072    -0.17800
C789        C  0.98689341  0.00362084  0.46636954    -0.16900
C790        C  0.98406030  0.00450387  0.51322488     0.07100
C791        C  0.98034579  0.00544447  0.56807056     0.09000
C792        C  0.97686002  0.00611332  0.61496957    -0.17800
C793        C  0.53339064  0.99892231  0.27556734     0.31600
C794        C  0.96093219  0.50125754  0.27575294     0.31600
C795        C  0.51908594  0.97120781  0.24914628    -0.04600
C796        C  0.51227129  0.00009286  0.32997528    -0.05400
C797        C  0.51306231  0.53026203  0.24934329    -0.05300
C798        C  0.98238557  0.97325429  0.25152080    -0.04600
C799        C  0.97467553  0.50058514  0.32910149    -0.05400
C800        C  0.97661933  0.53000982  0.25048881    -0.05300
C801        C  0.97425414  0.94619896  0.22898009    -0.30700
N802        N  0.50473732  0.92830505  0.21125765     0.15800
C803        C  0.53233125  0.94294449  0.22414970    -0.30700
H804        H  0.55971761  0.93359704  0.21642711     0.17800
C805        C  0.96045388  0.50041703  0.38052315    -0.29700
N806        N  0.98711012  0.50059081  0.41038594     0.14600
C807        C  0.51966951  0.00045621  0.38071759    -0.29600
C808        C  0.96423298  0.55703713  0.22657772    -0.29900
N809        N  0.99192365  0.57355570  0.21179892     0.15100
H810        H  0.93727591  0.56410493  0.22009250     0.17700
C811        C  0.52158021  0.55751244  0.22442922    -0.29900
H812        H  0.54752238  0.56538882  0.21681375     0.17700
H813        H  0.54544715  0.99961070  0.39374865     0.17700
H814        H  0.94816940  0.93988365  0.22494791     0.17800
H815        H  0.93290307  0.50052629  0.39517613     0.17700
C816        C  0.78360377  0.00083884  0.27467739     0.31600
C817        C  0.71073067  0.50211361  0.27979276     0.31600
C818        C  0.77179203  0.97218493  0.24771112    -0.04600
C819        C  0.76178065  0.00125115  0.32835792    -0.05400
C820        C  0.76461943  0.52807432  0.25074413    -0.05300
C821        C  0.73538443  0.97200965  0.24805473    -0.04600
C822        C  0.72480558  0.50217733  0.33288027    -0.05400
C823        C  0.72804055  0.52933889  0.25207320    -0.05300
C824        C  0.72998722  0.94486313  0.22267018    -0.30700
N825        N  0.76179951  0.92882850  0.20686741     0.15800
C826        C  0.78758807  0.94505902  0.22172435    -0.30700
H827        H  0.81551250  0.93766554  0.21422556     0.17800
C828        C  0.71081200  0.50333405  0.38443948    -0.29700
N829        N  0.73777667  0.50266422  0.41386114     0.14600
C830        C  0.76835246  0.00232474  0.37940961    -0.29600
C831        C  0.71695305  0.55667302  0.22785007    -0.29900
N832        N  0.74563828  0.57173538  0.21214102     0.15100
H833        H  0.69013149  0.56519637  0.22256380     0.17700
C834        C  0.77485170  0.55467754  0.22564510    -0.29900
H835        H  0.80134687  0.56135091  0.21825929     0.17700
H836        H  0.79373486  0.00286388  0.39327807     0.17700
H837        H  0.70486524  0.93726226  0.21613260     0.17800
H838        H  0.68322580  0.50459391  0.39949060     0.17700
C839        C  0.99897688  0.50231792  0.80255876     0.31600
C840        C  0.92708556  0.50516257  0.80430843     0.31600
C841        C  0.97756959  0.53118721  0.83002795    -0.04600
C842        C  0.98515872  0.50281936  0.74924821    -0.05400
C843        C  0.98094360  0.97675161  0.82935757    -0.05300
C844        C  0.94097175  0.53292023  0.83097836    -0.04600
C845        C  0.94854425  0.50425326  0.75021362    -0.05400
C846        C  0.94451814  0.97726376  0.82937392    -0.05300
C847        C  0.92730547  0.56117657  0.85538970    -0.30700
N848        N  0.95457349  0.57592152  0.86904964     0.15800
C849        C  0.98523530  0.55798746  0.85389123    -0.30700
H850        H  0.51039712  0.56466765  0.85807413     0.17800
C851        C  0.94140653  0.50471465  0.69939066    -0.29700
N852        N  0.97239678  0.50355417  0.66813761     0.14600
C853        C  0.99930398  0.50239934  0.69775696    -0.29600
C854        C  0.93465279  0.95017725  0.85328800    -0.29900
N855        N  0.96390541  0.93348044  0.86740704     0.15100
H856        H  0.90827262  0.94318938  0.86020083     0.17700
C857        C  0.99228880  0.94929306  0.85317916    -0.29900
H858        H  0.51881058  0.94083880  0.85862495     0.17700
H859        H  0.52635591  0.49947720  0.68268468     0.17700
H860        H  0.89985522  0.57042190  0.86234340     0.17800
H861        H  0.91571265  0.50579845  0.68603739     0.17700
C862        C  0.74788707  0.50512660  0.80623377     0.31600
C863        C  0.67617156  0.50595489  0.80777690     0.31600
C864        C  0.72537823  0.53302976  0.83551696    -0.04600
C865        C  0.73392691  0.50627891  0.75294098    -0.05400
C866        C  0.73103742  0.97500159  0.82935021    -0.05300
C867        C  0.68883394  0.53360100  0.83643089    -0.04600
C868        C  0.69744121  0.50670671  0.75384880    -0.05400
C869        C  0.69441502  0.97623009  0.83093291    -0.05300
C870        C  0.67388123  0.56066170  0.86347153    -0.30700
N871        N  0.70027073  0.57602545  0.87862133     0.15800
C872        C  0.73166201  0.55953605  0.86187453    -0.30700
H873        H  0.75712200  0.56654723  0.86799332     0.17800
C874        C  0.69023291  0.50691404  0.70302827    -0.29700
N875        N  0.72112839  0.50660288  0.67176685     0.14600
C876        C  0.74797044  0.50618850  0.70141591    -0.29600
C877        C  0.68424514  0.94977947  0.85681998    -0.29900
N878        N  0.71347621  0.93285283  0.87072574     0.15100
H879        H  0.65769771  0.94333437  0.86501614     0.17700
C880        C  0.74212339  0.94787473  0.85431223    -0.29900
H881        H  0.76892141  0.93965538  0.86016772     0.17700
H882        H  0.77554049  0.50547628  0.68653113     0.17700
H883        H  0.64612434  0.56873873  0.87108511     0.17800
H884        H  0.66461812  0.50690031  0.68970354     0.17700
Zr885      Zr  0.93914676  0.70452140  0.05526183     2.17500
O886        O  0.89575727  0.68694340  0.12214253    -0.49800
O887        O  0.94335513  0.66217335  0.99144100    -0.73000
O888        O  0.88294676  0.70726152  0.02474934    -0.81600
O889        O  0.51034645  0.67215129  0.13100964    -0.81500
O890        O  0.89836994  0.74250131  0.96775676    -0.77100
O891        O  0.96074306  0.66004241  0.10485096    -0.88800
O892        O  0.97924952  0.67630450  0.92087955    -0.74700
O893        O  0.94488881  0.73257877  0.97494663    -0.84200
O894        O  0.99960783  0.69709444  0.02268111    -0.83900
O895        O  0.91763682  0.75990539  0.07383846    -0.70700
O896        O  0.96645900  0.72777160  0.12251124    -0.82800
Zr897      Zr  0.51489561  0.80158105  0.02309855     2.26400
Zr898      Zr  0.92532830  0.78748762  0.99244773     2.06300
Zr899      Zr  0.52672085  0.71960223  0.08623961     2.10000
Zr900      Zr  0.00434831  0.72431185  0.94158177     1.78800
O901        O  0.55128771  0.71280522  0.16858939    -0.91600
O902        O  0.98025137  0.73658548  0.86007581    -0.39400
O903        O  0.53221901  0.74621992  0.00444987    -0.76000
O904        O  0.98609582  0.78012800  0.95689910    -0.94700
O905        O  0.95446012  0.81049091  0.05712612    -0.88000
O906        O  0.50836540  0.77476714  0.10521648    -0.90900
C907        C  0.95877561  0.65778971  0.94492829     1.02900
C908        C  0.98622951  0.65515354  0.13242577     1.15800
C909        C  0.87518131  0.73232915  0.00050151     1.06600
O910        O  0.88991721  0.80204943  0.92260294    -0.93000
O911        O  0.94048542  0.83487743  0.94694572    -0.88800
O912        O  0.99416489  0.84384478  0.96806110    -0.81900
C913        C  0.96669912  0.85118939  0.94538761     1.13200
O914        O  0.89920732  0.76618940  0.19714223    -0.95000
Zr915      Zr  0.94760946  0.78311310  0.13772176     1.88900
O916        O  0.51658732  0.83888920  0.09385476    -0.71700
O917        O  0.87368867  0.81813820  0.03809335    -0.50900
O918        O  0.89878746  0.82399305  0.16013001    -0.95600
O919        O  0.96987246  0.77039940  0.22056646    -0.52800
O920        O  0.97162395  0.83145499  0.15904069    -0.72200
C921        C  0.49741184  0.84642464  0.13692363     1.00200
O922        O  0.56076328  0.83407348  0.98903563    -0.61000
O923        O  0.57517072  0.68155365  0.04937238    -0.55800
O924        O  0.57491774  0.77772080  0.00831445    -0.92500
O925        O  0.57127955  0.75471558  0.08510460    -0.90900
O926        O  0.55402454  0.68645078  0.91537687    -0.91300
O927        O  0.54807823  0.74284019  0.87570428    -0.90000
C928        C  0.58835598  0.75965825  0.04153977     1.19000
H929        H  0.50664304  0.67474802  0.01487115     0.35000
H930        H  0.99048103  0.79066850  0.92407486     0.45800
H931        H  0.52144124  0.78298519  0.13095430     0.39300
H932        H  0.89319965  0.76127131  0.08789453     0.35800
H933        H  0.98471525  0.71660843  0.83942443     0.27600
H934        H  0.87472705  0.81456431  0.07563041     0.33500
H935        H  0.90235195  0.83233509  0.19471310     0.39500
H936        H  0.54820227  0.67468542  0.88496783     0.33900
H937        H  0.56572687  0.66075263  0.05207847     0.32800
H938        H  0.56994195  0.69488671  0.16210109     0.34500
H939        H  0.98863474  0.78436748  0.22317913     0.33400
H940        H  0.55919790  0.75838683  0.89515058     0.37400
H941        H  0.56080179  0.83391805  0.95071582     0.30200
H942        H  0.88322060  0.67154686  0.10471690     0.34400
H943        H  0.90096294  0.77607698  0.23135282     0.37300
H944        H  0.57794269  0.68588882  0.01158149     0.29900
H945        H  0.55214318  0.85607375  0.00042378     0.42700
H946        H  0.90256824  0.79036933  0.89156759     0.32800
H947        H  0.95442578  0.73945749  0.86962881     0.40400
H948        H  0.48739037  0.75007274  0.21055863     0.32300
H949        H  0.87845692  0.84044332  0.03308257     0.32300
H950        H  0.87845132  0.70576880  0.12960351     0.32600
Zr951      Zr  0.69082026  0.70557338  0.06512857     2.17500
O952        O  0.65249636  0.67806822  0.12770989    -0.49800
O953        O  0.68805336  0.66498650  0.99944176    -0.73000
O954        O  0.63023029  0.71946306  0.05908269    -0.79800
O955        O  0.76807172  0.67051551  0.13215534    -0.81500
O956        O  0.64233303  0.74808810  0.98972606    -0.77100
O957        O  0.71327584  0.66177272  0.11548291    -0.88800
O958        O  0.72445213  0.67552040  0.92717427    -0.74700
O959        O  0.69172933  0.73392339  0.98481677    -0.84200
O960        O  0.74908723  0.69592802  0.02326551    -0.83900
O961        O  0.67377017  0.76128053  0.08804139    -0.70700
O962        O  0.72489319  0.72662357  0.12638576    -0.82800
Zr963      Zr  0.77096463  0.79970479  0.02116311     2.26400
Zr964      Zr  0.67692582  0.78926730  0.00675302     2.06300
Zr965      Zr  0.78319649  0.71704619  0.08386975     2.10000
Zr966      Zr  0.74960418  0.72395360  0.94302091     1.78800
O967        O  0.81091318  0.71481955  0.16400858    -0.91600
O968        O  0.72040853  0.73499037  0.86550884    -0.39400
O969        O  0.78363919  0.74404555  0.00279492    -0.76000
O970        O  0.73494401  0.77990014  0.96097182    -0.94700
O971        O  0.71282764  0.81028095  0.06427224    -0.88000
O972        O  0.76924564  0.77262132  0.10317517    -0.90900
C973        C  0.70301727  0.65866157  0.95303434     1.02900
C974        C  0.74162161  0.65440179  0.13594302     1.15800
C975        C  0.62100569  0.74062762  0.02762105     1.06600
O976        O  0.63719982  0.80860144  0.94457050    -0.93000
O977        O  0.69005987  0.83673205  0.95972628    -0.88800
O978        O  0.74704338  0.84246049  0.96837761    -0.81900
C979        C  0.71752238  0.85146593  0.95192819     1.13200
O980        O  0.67015650  0.76577226  0.21663520    -0.95000
Zr981      Zr  0.71070896  0.78231660  0.14440355     1.88900
O982        O  0.77690946  0.83812339  0.08869597    -0.71700
O983        O  0.63149046  0.81975152  0.06577175    -0.50900
O984        O  0.66011502  0.82066765  0.17143755    -0.95600
O985        O  0.74086533  0.77269831  0.22162483    -0.52800
O986        O  0.73576760  0.83120583  0.15735518    -0.72200
C987        C  0.75974529  0.84619917  0.13313843     1.00200
O988        O  0.81663286  0.83051462  0.98092922    -0.61000
O989        O  0.82588991  0.67461403  0.04498748    -0.55800
O990        O  0.82937616  0.77315263  0.99471521    -0.92500
O991        O  0.83219701  0.74761157  0.06905233    -0.90900
O992        O  0.80058673  0.68632333  0.91501978    -0.91300
O993        O  0.79200094  0.74077167  0.87386117    -0.90000
C994        C  0.84514272  0.75305326  0.02287209     1.19000
H995        H  0.75596948  0.67356535  0.01740994     0.35000
H996        H  0.73704751  0.79053886  0.92795529     0.45800
H997        H  0.78540859  0.78014034  0.12505855     0.39300
H998        H  0.65018489  0.76421427  0.10614247     0.35800
H999        H  0.72792223  0.71626769  0.84242174     0.27600
H1000       H  0.64073115  0.84037692  0.06993597     0.33500
H1001       H  0.66780236  0.83406568  0.19844084     0.39500
H1002       H  0.79324151  0.67353054  0.88694603     0.33900
H1003       H  0.81521901  0.65476579  0.05338961     0.32800
H1004       H  0.82090050  0.69254002  0.16671427     0.34500
H1005       H  0.76127510  0.78520951  0.21699090     0.33400
H1006       H  0.80532636  0.75552591  0.89132025     0.37400
H1007       H  0.81474828  0.82989592  0.94306569     0.30200
H1008       H  0.63705357  0.66725618  0.10705366     0.34400
H1009       H  0.67250380  0.77961721  0.24665151     0.37300
H1010       H  0.82538798  0.67683624  0.00697034     0.29900
H1011       H  0.80904954  0.85276562  0.99190225     0.42700
H1012       H  0.64590287  0.79633555  0.91212423     0.32800
H1013       H  0.69518776  0.73343532  0.87698384     0.40400
H1014       H  0.75130722  0.75040092  0.21781415     0.32300
H1015       H  0.61159376  0.82464655  0.04524039     0.32300
H1016       H  0.63680475  0.69483370  0.14803559     0.32600
C1017       C  0.71525661  0.88009215  0.92238954    -0.11700
C1018       C  0.71410107  0.90442691  0.89831748    -0.13300
C1019       C  0.69654125  0.60497180  0.90589212    -0.11700
C1020       C  0.69676684  0.62980823  0.92846613    -0.13300
C1021       C  0.96531357  0.87989871  0.91632482    -0.11700
C1022       C  0.96458880  0.90458154  0.89341564    -0.13300
C1023       C  0.95351270  0.62955927  0.91796082    -0.11700
C1024       C  0.95232018  0.60503413  0.89521151    -0.13300
C1025       C  0.78696119  0.50505610  0.80548670    -0.16900
C1026       C  0.81872429  0.50558836  0.80519957     0.07100
C1027       C  0.85612364  0.50621982  0.80506161     0.09000
C1028       C  0.88793381  0.50627162  0.80491835    -0.17800
C1029       C  0.63734350  0.50573975  0.80758972    -0.16900
C1030       C  0.60595941  0.50443724  0.80584476     0.07100
C1031       C  0.56912430  0.50257858  0.80340718     0.09000
C1032       C  0.53766080  0.50156066  0.80202610    -0.17800
C1033       C  0.76656345  0.87491816  0.15733742    -0.11700
C1034       C  0.76644631  0.89981244  0.17979764    -0.13300
C1035       C  0.74500566  0.60079707  0.18682350    -0.11700
C1036       C  0.74393522  0.62563932  0.16454278    -0.13300
C1037       C  0.73422533  0.50347523  0.46842635    -0.16900
C1038       C  0.73121428  0.50421392  0.51535685     0.07100
C1039       C  0.72773821  0.50514750  0.57028140     0.09000
C1040       C  0.72475596  0.50589598  0.61720654    -0.17800
C1041       C  0.50632191  0.89894621  0.18580430    -0.11700
C1042       C  0.50417733  0.87429105  0.16382912    -0.13300
C1043       C  0.98830948  0.62660535  0.16165524    -0.11700
C1044       C  0.99003681  0.60219198  0.18517111    -0.13300
C1045       C  0.92209565  0.50077153  0.27625510    -0.16900
C1046       C  0.89046996  0.50005520  0.27625712     0.07100
C1047       C  0.85371839  0.00214852  0.27776603     0.09000
C1048       C  0.82230786  0.00136380  0.27562690    -0.17800
C1049       C  0.57254157  0.99777016  0.27466065    -0.16900
C1050       C  0.60429392  0.99801849  0.27473676     0.07100
C1051       C  0.64000663  0.50362011  0.27935492     0.09000
C1052       C  0.67167954  0.50328287  0.28048241    -0.17800
C1053       C  0.98335583  0.50129897  0.46494929    -0.16900
C1054       C  0.98071944  0.50201597  0.51185366     0.07100
C1055       C  0.97819431  0.50277889  0.56671066     0.09000
C1056       C  0.97584942  0.50323112  0.61359544    -0.17800
loop_ 
_geom_bond_atom_site_label_1 
_geom_bond_atom_site_label_2 
_geom_bond_distance 
_geom_bond_site_symmetry_2 
_ccdc_geom_bond_type 
C1            C3   1.540       .  S
C1            C4   1.534       .  S
C1          C269   1.537       .  S
C1          C257   1.498       .  S
C2            C8   1.533       .  S
C2            C7   1.534       .  S
C2          C270   1.529   1_545  S
C2          C253   1.498       .  S
C3           C11   1.381       .  A
C3          C534   1.401   1_455  A
C4           C15   1.374       .  A
C4          C799   1.400   1_455  A
C5          C265   1.537   1_545  S
C5           C19   1.376       .  A
C5          C536   1.401   1_455  A
C6          C266   1.534       .  S
C6            C9   1.372       .  A
C6          C531   1.402       .  A
C7           C13   1.375       .  A
C7          C796   1.402       .  A
C8           C16   1.373       .  A
C8          C533   1.401       .  A
C9           H22   1.083       .  S
C9          N538   1.355       .  A
N10          C11   1.359       .  A
N10         C537   1.355   1_455  A
N10         C249   1.402       .  S
C11          H12   1.082       .  S
C13          H23   1.083       .  S
C13          N14   1.356       .  A
N14         C807   1.356       .  A
N14         C261   1.400       .  S
C15          H21   1.083       .  S
C15         N806   1.355   1_455  A
C16          H18   1.083       .  S
C16          N17   1.355       .  A
N17         C547   1.356       .  A
N17         C252   1.399       .  S
C19          H20   1.083       .  S
C19         N545   1.356   1_455  A
C24          C26   1.539       .  S
C24          C27   1.537       .  S
C24         C292   1.536       .  S
C24         C256   1.500       .  S
C25          C31   1.535       .  S
C25          C30   1.536       .  S
C25         C293   1.534   1_545  S
C25         C260   1.498   1_545  S
C26          C34   1.381       .  A
C26          C29   1.402       .  A
C27          C38   1.375       .  A
C27         C294   1.402       .  A
C28         C288   1.535       .  S
C28          C42   1.375       .  A
C28          C31   1.401       .  A
C29         C289   1.531       .  S
C29          C32   1.370       .  A
C30          C36   1.377       .  A
C30         C291   1.400       .  A
C31          C39   1.376       .  A
C32          H45   1.083       .  S
C32          N33   1.353       .  A
N33          C34   1.359       .  A
N33         C242   1.400       .  S
C34          H35   1.082       .  S
C36          H46   1.083       .  S
C36          N37   1.357       .  A
N37         C302   1.356       .  A
N37         C245   1.402       .  S
C38          H44   1.083       .  S
C38         N301   1.356       .  A
C39          H41   1.083       .  S
C39          N40   1.357       .  A
N40          C42   1.356       .  A
N40         C243   1.401       .  S
C42          H43   1.082       .  S
C47          C49   1.533       .  S
C47          C50   1.534       .  S
C47         C315   1.535   1_545  S
C47         C768   1.499       .  S
C48          C52   1.540       .  S
C48          C53   1.535       .  S
C48         C318   1.532   1_545  S
C48         C236   1.498       .  S
C49          C57   1.372       .  A
C49          C52   1.402       .  A
C50          C61   1.375       .  A
C50          C53   1.401       .  A
C51         C311   1.533       .  S
C51          C65   1.374       .  A
C51          C54   1.401       .  A
C52          C55   1.380       .  A
C53          C59   1.375       .  A
C54         C312   1.537       .  S
C54          C62   1.377       .  A
C55          H68   1.082       .  S
C55          N56   1.358       .  A
N56          C57   1.355       .  A
N56         C232   1.402       .  S
C57         H586   1.083       .  S
H58         C585   1.083   1_455  S
C59          H69   1.083       .  S
C59          N60   1.356       .  A
N60          C61   1.356       .  A
N60         C264   1.400       .  S
C61         H595   1.083       .  S
C62          H64   1.083       .  S
C62          N63   1.357       .  A
N63          C65   1.355       .  A
N63         C230   1.401       .  S
C65         H594   1.083       .  S
H66         C593   1.083   1_455  S
H67         C589   1.083   1_455  S
C70          C72   1.530       .  S
C70          C73   1.536       .  S
C70         C338   1.535   1_545  S
C70         C233   1.498       .  S
C71          C75   1.538       .  S
C71          C76   1.537       .  S
C71         C341   1.536   1_545  S
C71         C237   1.497       .  S
C72          C80   1.371       .  A
C72          C75   1.400       .  A
C73          C84   1.377       .  A
C73          C76   1.401       .  A
C74         C334   1.536       .  S
C74          C88   1.376       .  A
C74          C77   1.400       .  A
C75          C78   1.380       .  A
C76          C82   1.376       .  A
C77         C335   1.533       .  S
C77          C85   1.374       .  A
C78          H91   1.082       .  S
C78          N79   1.358       .  A
N79          C80   1.353       .  A
N79         C227   1.400       .  S
C80          H81   1.083       .  S
C82          H92   1.083       .  S
C82          N83   1.356       .  A
N83          C84   1.357       .  A
N83         C248   1.402       .  S
C84          H90   1.083       .  S
C85          H87   1.083       .  S
C85          N86   1.355       .  A
N86          C88   1.356       .  A
N86         C226   1.399       .  S
C88          H89   1.083       .  S
Zr93         O94   2.440       .  S
Zr93         O95   2.435   1_554  S
Zr93         O96   2.369       .  S
Zr93         O99   2.417       .  S
Zr93        O101   2.399   1_554  S
Zr93        O102   2.365       .  S
Zr93        O103   2.441       .  S
Zr93        O104   2.399       .  S
O94         H150   0.990       .  S
O94         H158   0.990       .  S
O95         C115   1.282       .  A
O96         C117   1.266       .  A
O97        Zr107   2.427       .  S
O97         C644   1.280   1_455  A
O98        Zr106   2.379   1_556  S
O98         C117   1.264   1_556  A
O99         C116   1.279       .  A
O100       Zr108   2.421       .  S
O100        C115   1.280       .  A
O101       Zr106   2.409   1_556  S
O101       Zr108   2.350       .  S
O102       Zr108   2.392   1_554  S
O102       Zr635   2.388       .  S
O102        H665   0.966       .  S
O103       Zr106   2.413       .  S
O103       Zr123   2.387       .  S
O103        H140   0.966       .  S
O104       Zr123   2.403       .  S
O104       Zr635   2.370       .  S
Zr105       O130   2.438   1_554  S
Zr105       O124   2.437       .  S
Zr105       O132   2.422   1_554  S
Zr105       O648   2.434   1_454  S
Zr105       O111   2.404       .  S
Zr105       O114   2.407       .  S
Zr105       O640   2.414   1_454  S
Zr105       O641   2.378   1_455  S
Zr106       O125   2.436       .  S
Zr106       O118   2.435   1_554  S
Zr106       O119   2.424   1_554  S
Zr106       O112   2.393   1_554  S
Zr106       O113   2.378       .  S
Zr107       O109   2.435       .  S
Zr107       O131   2.437       .  S
Zr107       O133   2.390       .  S
Zr107       O111   2.393       .  S
Zr107       O114   2.408       .  S
Zr107       O630   2.386   1_455  S
Zr107       O632   2.371   1_455  S
Zr108       O110   2.435       .  S
Zr108       O662   2.435       .  S
Zr108       O663   2.435       .  S
Zr108       O112   2.414       .  S
Zr108       O639   2.359   1_556  S
O109        H146   0.990       .  S
O110        H141   0.990       .  S
O110        H155   0.990       .  S
O111       Zr636   2.359   1_554  S
O112       Zr633   2.411   1_556  S
O112        H138   0.965       .  S
O113       Zr123   2.385       .  S
O113       Zr633   2.373       .  S
O114       Zr651   2.366   1_455  S
O114        H139   0.966       .  S
C115        C231   1.436       .  S
C116        O625   1.280       .  A
C116        C251   1.431       .  S
C117        C202   1.428       .  S
O118        H154   0.990       .  S
O119        C121   1.280       .  A
O120       Zr633   2.438   1_556  S
O120        C121   1.281       .  A
C121        C229   1.433       .  S
O122       Zr123   2.438       .  S
O122        H151   0.990       .  S
Zr123       O126   2.437       .  S
Zr123       O127   2.441       .  S
Zr123       O128   2.421       .  S
Zr123       O642   2.365       .  S
O124        C129   1.282       .  A
O125        H142   0.990       .  S
O125        H157   0.988       .  S
O126        H143   0.990       .  S
O127        H147   0.990       .  S
O127        H684   0.990       .  S
O128        C657   1.280       .  A
C129        O656   1.280   1_455  A
C129        C250   1.436       .  S
O130        H149   0.990       .  S
O130        H153   0.990       .  S
O131        H145   0.990       .  S
O131        H152   0.990       .  S
O132        C136   1.275   1_556  A
O133        C136   1.267       .  A
O134       Zr636   2.436       .  S
O134        H144   0.990       .  S
O135       Zr636   2.437       .  S
O135        H148   0.990       .  S
C136        C183   1.436       .  S
H137        O630   0.966   1_455  S
H156        O655   0.990       .  S
Zr159       O160   2.435       .  S
Zr159       O161   2.419   1_554  S
Zr159       O162   2.371       .  S
Zr159       O165   2.423       .  S
Zr159       O167   2.402   1_554  S
Zr159       O168   2.367       .  S
Zr159       O169   2.442       .  S
Zr159       O170   2.394       .  S
O160        H216   0.990       .  S
O160        H224   0.990       .  S
O161        C181   1.280       .  A
O162        C183   1.263       .  A
O163       Zr173   2.429       .  S
O163        C182   1.281       .  A
O164       Zr172   2.386       .  S
O164        C183   1.266   1_556  A
O165        C182   1.281       .  A
O166       Zr174   2.430       .  S
O166        C181   1.282       .  A
O167       Zr172   2.403       .  S
O167       Zr174   2.343       .  S
O168       Zr173   2.386       .  S
O168       Zr174   2.394   1_554  S
O168        H203   0.966       .  S
O169       Zr172   2.414   1_554  S
O169       Zr189   2.388       .  S
O169        H206   0.964       .  S
O170       Zr173   2.372       .  S
O170       Zr189   2.405       .  S
Zr171       O196   2.441   1_554  S
Zr171       O190   2.429       .  S
Zr171       O198   2.411       .  S
Zr171       O186   2.431   1_554  S
Zr171       O177   2.407       .  S
Zr171       O178   2.410   1_554  S
Zr171       O179   2.379       .  S
Zr171       O180   2.410       .  S
Zr172       O191   2.435   1_556  S
Zr172       O184   2.434       .  S
Zr172       O185   2.426       .  S
Zr172       O178   2.397       .  S
Zr172       O179   2.382   1_556  S
Zr173       O175   2.434       .  S
Zr173       O197   2.436       .  S
Zr173       O199   2.382       .  S
Zr173       O177   2.399       .  S
Zr173       O180   2.407       .  S
Zr174       O200   2.435       .  S
Zr174       O201   2.434       .  S
Zr174       O176   2.437       .  S
Zr174       O177   2.366   1_556  S
Zr174       O178   2.415       .  S
O175        H212   0.990       .  S
O176        H207   0.990       .  S
O176        H221   0.990       .  S
O178        H204   0.966       .  S
O179       Zr189   2.389       .  S
O180       Zr189   2.360       .  S
O180        H205   0.966       .  S
C181        C228   1.432       .  S
C182        C244   1.434       .  S
O184        H220   0.990       .  S
O185        C187   1.280       .  A
O186        C187   1.279       .  A
C187        C225   1.431       .  S
O188       Zr189   2.439       .  S
O188        H217   0.990       .  S
Zr189       O192   2.437       .  S
Zr189       O193   2.440       .  S
Zr189       O194   2.427       .  S
O190        C195   1.280       .  A
O191        H208   0.988       .  S
O191        H223   0.990       .  S
O192        H209   0.990       .  S
O193        H213   0.990       .  S
O193        H222   0.990       .  S
O194        C195   1.281       .  A
C195        C241   1.433       .  S
O196        H215   0.990       .  S
O196        H219   0.991       .  S
O197        H211   0.990       .  S
O197        H218   0.989       .  S
O198        C202   1.273       .  A
O199        C202   1.263       .  A
O200        H210   0.990       .  S
O201        H214   0.990       .  S
C225        C226   1.204       .  T
C227        C228   1.204       .  T
C229        C230   1.205       .  T
C231        C232   1.206       .  T
C233        C234   1.222       .  T
C234        C235   1.439       .  S
C235        C236   1.222       .  T
C237        C238   1.222       .  T
C238        C239   1.438       .  S
C239        C240   1.222       .  T
C240        C575   1.498   1_455  S
C241        C242   1.205       .  T
C243        C244   1.206       .  T
C245        C246   1.206       .  T
C246        C247   1.412       .  S
C247        C248   1.206       .  T
C249        C250   1.207       .  T
C251        C252   1.204       .  T
C253        C254   1.222       .  T
C254        C519   1.439       .  S
C255        C256   1.223       .  T
C255        C518   1.440       .  S
C257        C258   1.223       .  T
C258        C523   1.439       .  S
C259        C260   1.222       .  T
C259        C522   1.439       .  S
C261        C262   1.204       .  T
C262        C263   1.409       .  S
C263        C264   1.204       .  T
C265        C267   1.541       .  S
C265        C268   1.534   1_565  S
C265        C521   1.497       .  S
C266        C272   1.535       .  S
C266        C271   1.534       .  S
C266        C517   1.500       .  S
C267        C275   1.381       .  A
C267        C798   1.401   1_455  A
C268        C279   1.374       .  A
C268        C535   1.400   1_455  A
C269        C283   1.376       .  A
C269        C800   1.401   1_455  A
C270        C795   1.401       .  A
C270        C273   1.370       .  A
C271        C532   1.400       .  A
C271        C277   1.375       .  A
C272        C797   1.401       .  A
C272        C280   1.375       .  A
C273        H286   1.083       .  S
C273        N802   1.353       .  A
N274        C801   1.352   1_455  A
N274        C275   1.359       .  A
N274        C513   1.399       .  S
C275        H276   1.082       .  S
C277        H287   1.082       .  S
C277        N278   1.356       .  A
N278        C543   1.355       .  A
N278        C525   1.400       .  S
C279        H285   1.083       .  S
C279        N542   1.355   1_455  A
C280        H282   1.083       .  S
C280        N281   1.356       .  A
N281        C811   1.357       .  A
N281        C516   1.402       .  S
C283        H284   1.083       .  S
C283        N809   1.356   1_455  A
C288        C290   1.536   1_545  S
C288        C291   1.534       .  S
C288        C520   1.497       .  S
C289        C295   1.532       .  S
C289        C294   1.534       .  S
C289        C524   1.499       .  S
C290        C298   1.378       .  A
C290        C293   1.401       .  A
C291        C302   1.375       .  A
C292        C306   1.376       .  A
C292        C295   1.401       .  A
C293        C296   1.372       .  A
C294        C300   1.375       .  A
C295        C303   1.373       .  A
C296        H309   1.083       .  S
C296        N297   1.355       .  A
N297        C298   1.357       .  A
N297        C506   1.399       .  S
C298        H299   1.082       .  S
C300        H310   1.083       .  S
C300        N301   1.356       .  A
N301        C509   1.401       .  S
C302        H308   1.083       .  S
C303        H305   1.083       .  S
C303        N304   1.355       .  A
N304        C306   1.356       .  A
N304        C507   1.399       .  S
C306        H307   1.083       .  S
C311        C313   1.529       .  S
C311        C314   1.534       .  S
C311       C1032   1.496       .  S
C312        C316   1.538       .  S
C312        C317   1.535       .  S
C312        C500   1.499       .  S
C313        C321   1.370       .  A
C313        C316   1.400       .  A
C314        C325   1.375       .  A
C314        C317   1.402       .  A
C315        C329   1.375       .  A
C315        C318   1.400       .  A
C316        C319   1.379       .  A
C317        C323   1.374       .  A
C318        C326   1.374       .  A
C319        H332   1.082       .  S
C319        N320   1.358       .  A
N320        C321   1.353       .  A
N320        C496   1.399       .  S
C321        H850   1.083       .  S
H322        C849   1.083   1_455  S
C323        H333   1.083       .  S
C323        N324   1.355       .  A
N324        C325   1.356       .  A
N324        C528   1.400       .  S
C325        H859   1.083       .  S
C326        H328   1.083       .  S
C326        N327   1.355       .  A
N327        C329   1.356       .  A
N327        C494   1.399       .  S
C329        H858   1.082       .  S
H330        C857   1.083   1_455  S
H331        C853   1.083   1_455  S
C334        C336   1.536       .  S
C334        C337   1.536       .  S
C334        C497   1.499       .  S
C335        C339   1.538       .  S
C335        C340   1.533       .  S
C335        C501   1.494       .  S
C336        C344   1.374       .  A
C336        C339   1.401       .  A
C337        C348   1.377       .  A
C337        C340   1.400       .  A
C338        C352   1.375       .  A
C338        C341   1.401       .  A
C339        C342   1.380       .  A
C340        C346   1.374       .  A
C341        C349   1.377       .  A
C342        H355   1.082       .  S
C342        N343   1.358       .  A
N343        C344   1.356       .  A
N343        C491   1.404       .  S
C344        H345   1.083       .  S
C346        H356   1.083       .  S
C346        N347   1.355       .  A
N347        C348   1.357       .  A
N347        C512   1.401       .  S
C348        H354   1.082       .  S
C349        H351   1.083       .  S
C349        N350   1.357       .  A
N350        C352   1.356       .  A
N350        C490   1.402       .  S
C352        H353   1.082       .  S
Zr357       O358   2.432       .  S
Zr357       O359   2.417   1_554  S
Zr357       O360   2.377       .  S
Zr357       O363   2.422       .  S
Zr357       O365   2.399   1_554  S
Zr357       O366   2.368       .  S
Zr357       O367   2.442       .  S
Zr357       O368   2.393       .  S
O358        H414   0.990       .  S
O358        H422   0.989       .  S
O359        C379   1.280       .  A
O360        C381   1.264       .  A
O361       Zr371   2.429       .  S
O361        C908   1.282   1_455  A
O362       Zr370   2.391       .  S
O362        C381   1.267   1_556  A
O363        C380   1.281       .  A
O364       Zr372   2.432       .  S
O364        C379   1.282       .  A
O365       Zr370   2.399       .  S
O365       Zr372   2.340       .  S
O366       Zr899   2.384       .  S
O366       Zr372   2.395   1_554  S
O366        H929   0.966       .  S
O367       Zr370   2.409   1_554  S
O367       Zr387   2.389       .  S
O367        H404   0.963       .  S
O368       Zr899   2.371       .  S
O368       Zr387   2.405       .  S
Zr369       O394   2.439   1_554  S
Zr369       O388   2.427       .  S
Zr369       O396   2.414       .  S
Zr369       O912   2.436   1_454  S
Zr369       O375   2.407       .  S
Zr369       O904   2.410   1_454  S
Zr369       O905   2.378   1_455  S
Zr369       O378   2.409       .  S
Zr370       O389   2.436   1_556  S
Zr370       O382   2.434       .  S
Zr370       O383   2.419       .  S
Zr370       O376   2.399       .  S
Zr370       O377   2.383   1_556  S
Zr371       O373   2.436       .  S
Zr371       O395   2.435       .  S
Zr371       O397   2.389       .  S
Zr371       O894   2.386   1_455  S
Zr371       O896   2.373   1_455  S
Zr371       O375   2.397       .  S
Zr371       O378   2.402       .  S
Zr372       O926   2.436       .  S
Zr372       O927   2.434       .  S
Zr372       O374   2.438       .  S
Zr372       O903   2.365   1_556  S
Zr372       O376   2.417       .  S
O373        H410   0.990       .  S
O374        H405   0.990       .  S
O374        H419   0.990       .  S
O375       Zr900   2.364   1_554  S
O376       Zr897   2.409   1_556  S
O376        H402   0.966       .  S
O377       Zr897   2.378       .  S
O377       Zr387   2.388       .  S
O378       Zr915   2.362   1_455  S
O378        H403   0.965       .  S
C379        C495   1.431       .  S
C380        O889   1.282       .  A
C380        C515   1.435       .  S
C381        C466   1.438       .  S
O382        H418   0.990       .  S
O383        C385   1.279       .  A
O384       Zr897   2.436   1_556  S
O384        C385   1.281       .  A
C385        C493   1.431       .  S
O386       Zr387   2.440       .  S
O386        H415   0.990       .  S
Zr387       O390   2.439       .  S
Zr387       O391   2.439       .  S
Zr387       O392   2.431       .  S
Zr387       O906   2.362       .  S
O388        C393   1.280   1_455  A
O389        H406   0.988       .  S
O389        H421   0.990       .  S
O390        H407   0.990       .  S
O391        H411   0.990       .  S
O391        H948   0.990       .  S
O392        C921   1.282       .  A
C393        O920   1.281       .  A
C393        C514   1.432   1_655  S
O394        H413   0.990       .  S
O394        H417   0.991   1_556  S
O395        H409   0.990       .  S
O395        H416   0.990       .  S
O396        C400   1.274       .  A
O397        C400   1.264       .  A
O398       Zr900   2.437       .  S
O398        H408   0.990       .  S
O399       Zr900   2.434       .  S
O399        H412   0.990       .  S
C400        C447   1.431       .  S
H401        O894   0.966   1_455  S
H420        O919   0.990       .  S
Zr423       O424   2.440       .  S
Zr423       O425   2.438       .  S
Zr423       O426   2.370       .  S
Zr423       O429   2.420       .  S
Zr423       O431   2.401   1_554  S
Zr423       O432   2.367       .  S
Zr423       O433   2.444       .  S
Zr423       O434   2.399       .  S
O424        H480   0.990       .  S
O424        H488   0.990       .  S
O425        C445   1.283   1_554  A
O426        C447   1.266       .  A
O427       Zr437   2.426       .  S
O427        C446   1.280       .  A
O428       Zr436   2.377   1_556  S
O428        C447   1.264   1_556  A
O429        C446   1.279       .  A
O430       Zr438   2.424       .  S
O430        C445   1.280       .  A
O431       Zr436   2.411   1_556  S
O431       Zr438   2.350       .  S
O432       Zr437   2.391       .  S
O432       Zr438   2.393   1_554  S
O432        H467   0.966       .  S
O433       Zr436   2.414       .  S
O433       Zr453   2.386       .  S
O433        H470   0.966       .  S
O434       Zr437   2.371       .  S
O434       Zr453   2.402       .  S
Zr435       O460   2.439   1_554  S
Zr435       O454   2.436       .  S
Zr435       O462   2.423   1_554  S
Zr435       O450   2.441   1_554  S
Zr435       O441   2.400       .  S
Zr435       O442   2.409   1_554  S
Zr435       O443   2.374       .  S
Zr435       O444   2.410       .  S
Zr436       O455   2.437       .  S
Zr436       O448   2.434   1_554  S
Zr436       O449   2.423   1_554  S
Zr436       O442   2.393   1_554  S
Zr436       O443   2.379       .  S
Zr437       O439   2.437       .  S
Zr437       O461   2.437       .  S
Zr437       O463   2.396       .  S
Zr437       O441   2.389       .  S
Zr437       O444   2.403       .  S
Zr438       O464   2.436       .  S
Zr438       O465   2.433       .  S
Zr438       O440   2.435       .  S
Zr438       O441   2.356   1_556  S
Zr438       O442   2.418       .  S
O439        H476   0.990       .  S
O440        H471   0.990       .  S
O440        H485   0.990       .  S
O442        H468   0.965       .  S
O443       Zr453   2.388       .  S
O444       Zr453   2.370       .  S
O444        H469   0.966       .  S
C445        C492   1.438       .  S
C446        C508   1.431       .  S
O448        H484   0.990       .  S
O449        C451   1.280       .  A
O450        C451   1.281       .  A
C451        C489   1.435       .  S
O452       Zr453   2.439       .  S
O452        H481   0.990       .  S
Zr453       O456   2.438       .  S
Zr453       O457   2.440       .  S
Zr453       O458   2.417       .  S
O454        C459   1.282       .  A
O455        H472   0.990       .  S
O455        H487   0.988       .  S
O456        H473   0.990       .  S
O457        H477   0.990       .  S
O457        H486   0.990       .  S
O458        C459   1.280       .  A
C459        C505   1.431       .  S
O460        H479   0.990       .  S
O460        H483   0.990       .  S
O461        H475   0.990       .  S
O461        H482   0.989       .  S
O462        C466   1.275   1_556  A
O463        C466   1.269       .  A
O464        H474   0.990       .  S
O465        H478   0.990       .  S
C489        C490   1.206       .  T
C491        C492   1.208       .  T
C493        C494   1.204       .  T
C495        C496   1.203       .  T
C497        C498   1.223       .  T
C498        C499   1.440       .  S
C499        C500   1.223       .  T
C501        C502   1.220       .  T
C502        C503   1.436       .  S
C503        C504   1.221       .  T
C504        C839   1.495   1_455  S
C505        C506   1.204       .  T
C507        C508   1.204       .  T
C509        C510   1.205       .  T
C510        C511   1.410       .  S
C511        C512   1.205       .  T
C513        C514   1.204       .  T
C515        C516   1.206       .  T
C517        C518   1.223       .  T
C519        C520   1.222       .  T
C521        C522   1.222       .  T
C523        C524   1.223       .  T
C525        C526   1.204       .  T
C526        C527   1.409       .  S
C527        C528   1.204       .  T
C529        C531   1.539       .  S
C529        C797   1.538       .  S
C529        C532   1.534       .  S
C529        C785   1.497       .  S
C530        C798   1.529   1_545  S
C530        C536   1.533       .  S
C530        C535   1.532       .  S
C530        C781   1.496       .  S
C531        C539   1.380       .  A
C532        C543   1.375       .  A
C533        C793   1.537   1_545  S
C533        C547   1.376       .  A
C534        C794   1.532       .  S
C534        C537   1.372       .  A
C535        C541   1.374       .  A
C536        C544   1.374       .  A
C537        H550   1.083       .  S
N538        C539   1.358       .  A
N538        C777   1.402       .  S
C539        H540   1.082       .  S
C541        H551   1.083       .  S
C541        N542   1.355       .  A
N542        C789   1.398       .  S
C543        H549   1.083       .  S
C544        H546   1.083       .  S
C544        N545   1.355       .  A
N545        C780   1.400       .  S
C547        H548   1.083       .  S
C552        C554   1.538       .  S
C552        C820   1.534       .  S
C552        C555   1.536       .  S
C552        C784   1.496       .  S
C553        C821   1.534   1_545  S
C553        C559   1.536       .  S
C553        C558   1.534       .  S
C553        C788   1.500   1_545  S
C554        C562   1.380       .  A
C554        C557   1.401       .  A
C555        C566   1.375       .  A
C555        C822   1.401       .  A
C556        C816   1.535       .  S
C556        C570   1.376       .  A
C556        C559   1.402       .  A
C557        C817   1.532       .  S
C557        C560   1.371       .  A
C558        C819   1.400       .  A
C558        C564   1.375       .  A
C559        C567   1.375       .  A
C560        H573   1.083       .  S
C560        N561   1.354       .  A
N561        C562   1.358       .  A
N561        C770   1.401       .  S
C562        H563   1.082       .  S
C564        H574   1.082       .  S
C564        N565   1.356       .  A
N565        C830   1.355       .  A
N565        C773   1.400       .  S
C566        H572   1.083       .  S
C566        N829   1.356       .  A
C567        H569   1.083       .  S
C567        N568   1.356       .  A
N568        C570   1.356       .  A
N568        C771   1.400       .  S
C570        H571   1.083       .  S
C575        C577   1.534       .  S
C575        C843   1.535   1_545  S
C575        C578   1.534       .  S
C576        C580   1.539       .  S
C576        C846   1.534   1_545  S
C576        C581   1.535       .  S
C576        C764   1.497       .  S
C577        C585   1.372       .  A
C577        C580   1.401       .  A
C578        C589   1.375       .  A
C578        C581   1.401       .  A
C579        C839   1.532       .  S
C579        C593   1.374       .  A
C579        C582   1.402       .  A
C580        C583   1.381       .  A
C581        C587   1.375       .  A
C582        C840   1.537       .  S
C582        C590   1.376       .  A
C583        H596   1.082       .  S
C583        N584   1.358       .  A
N584        C585   1.355       .  A
N584        C760   1.403       .  S
C587        H597   1.083       .  S
C587        N588   1.355       .  A
N588        C589   1.356       .  A
N588        C792   1.399       .  S
C590        H592   1.083       .  S
C590        N591   1.356       .  A
N591        C593   1.355       .  A
N591        C758   1.399       .  S
C598        C600   1.529       .  S
C598        C866   1.536   1_545  S
C598        C601   1.535       .  S
C598        C761   1.498       .  S
C599        C603   1.540       .  S
C599        C869   1.538   1_545  S
C599        C604   1.536       .  S
C599        C765   1.499       .  S
C600        C608   1.370       .  A
C600        C603   1.400       .  A
C601        C612   1.375       .  A
C601        C604   1.401       .  A
C602        C862   1.536       .  S
C602        C616   1.376       .  A
C602        C605   1.401       .  A
C603        C606   1.381       .  A
C604        C610   1.375       .  A
C605        C863   1.534       .  S
C605        C613   1.375       .  A
C606        H619   1.082       .  S
C606        N607   1.359       .  A
N607        C608   1.352       .  A
N607        C755   1.400       .  S
C608        H609   1.083       .  S
C610        H620   1.083       .  S
C610        N611   1.356       .  A
N611        C612   1.356       .  A
N611        C776   1.400       .  S
C612        H618   1.083       .  S
C613        H615   1.083       .  S
C613        N614   1.355       .  A
N614        C616   1.356       .  A
N614        C754   1.400       .  S
C616        H617   1.082       .  S
Zr621       O622   2.440       .  S
Zr621       O623   2.434   1_554  S
Zr621       O624   2.362       .  S
Zr621       O627   2.420       .  S
Zr621       O629   2.404   1_554  S
Zr621       O630   2.366       .  S
Zr621       O631   2.447       .  S
Zr621       O632   2.397       .  S
O622        H678   0.990       .  S
O622        H686   0.990       .  S
O623        C643   1.283       .  A
O624        C645   1.263       .  A
O625       Zr635   2.428       .  S
O626       Zr634   2.382   1_556  S
O626        C645   1.265   1_556  A
O627        C644   1.280       .  A
O628       Zr636   2.425   1_655  S
O628        C643   1.281       .  A
O629       Zr634   2.405   1_556  S
O629       Zr636   2.349   1_655  S
O630       Zr636   2.395   1_654  S
O631       Zr634   2.412       .  S
O631       Zr651   2.388       .  S
O631        H668   0.966       .  S
O632       Zr651   2.406       .  S
Zr633       O658   2.438   1_554  S
Zr633       O652   2.437       .  S
Zr633       O660   2.425   1_554  S
Zr633       O639   2.403       .  S
Zr633       O642   2.410       .  S
Zr634       O653   2.434       .  S
Zr634       O646   2.436   1_554  S
Zr634       O647   2.420   1_554  S
Zr634       O640   2.395   1_554  S
Zr634       O641   2.382       .  S
Zr635       O637   2.436       .  S
Zr635       O659   2.436       .  S
Zr635       O661   2.390       .  S
Zr635       O639   2.393       .  S
Zr635       O642   2.407       .  S
Zr636       O638   2.436   1_455  S
Zr636       O640   2.416   1_455  S
O637        H674   0.990       .  S
O638        H669   0.990       .  S
O638        H683   0.990       .  S
O640        H666   0.966       .  S
O641       Zr651   2.386       .  S
O642        H667   0.966       .  S
C643        C759   1.437       .  S
C644        C779   1.433       .  S
C645        C730   1.430       .  S
O646        H682   0.990       .  S
O647        C649   1.279       .  A
O648        C649   1.281       .  A
C649        C757   1.430       .  S
O650       Zr651   2.438       .  S
O650        H679   0.990       .  S
Zr651       O654   2.438       .  S
Zr651       O655   2.439       .  S
Zr651       O656   2.423       .  S
O652        C657   1.282       .  A
O653        H670   0.988       .  S
O653        H685   0.990       .  S
O654        H671   0.990       .  S
O655        H675   0.990   1_655  S
C657        C778   1.435       .  S
O658        H677   0.990       .  S
O658        H681   0.991       .  S
O659        H673   0.990       .  S
O659        H680   0.989       .  S
O660        C664   1.275   1_556  A
O661        C664   1.266       .  A
O662        H672   0.990       .  S
O663        H676   0.990       .  S
C664        C711   1.436       .  S
Zr687       O688   2.435       .  S
Zr687       O689   2.422   1_554  S
Zr687       O690   2.375       .  S
Zr687       O693   2.420       .  S
Zr687       O695   2.400   1_554  S
Zr687       O696   2.366       .  S
Zr687       O697   2.442       .  S
Zr687       O698   2.398       .  S
O688        H744   0.990       .  S
O688        H752   0.989       .  S
O689        C709   1.280       .  A
O690        C711   1.264       .  A
O691       Zr701   2.429       .  S
O691        C710   1.281       .  A
O692       Zr700   2.388       .  S
O692        C711   1.266   1_556  A
O693        C710   1.280       .  A
O694       Zr702   2.427       .  S
O694        C709   1.281       .  A
O695       Zr700   2.402       .  S
O695       Zr702   2.345       .  S
O696       Zr701   2.386       .  S
O696       Zr702   2.393   1_554  S
O696        H731   0.966       .  S
O697       Zr700   2.414   1_554  S
O697       Zr717   2.394       .  S
O697        H734   0.965       .  S
O698       Zr701   2.374       .  S
O698       Zr717   2.407       .  S
Zr699       O724   2.439   1_554  S
Zr699       O718   2.431       .  S
Zr699       O726   2.411       .  S
Zr699       O714   2.432   1_554  S
Zr699       O705   2.407       .  S
Zr699       O706   2.413   1_554  S
Zr699       O707   2.378       .  S
Zr699       O708   2.411       .  S
Zr700       O719   2.435   1_556  S
Zr700       O712   2.432       .  S
Zr700       O713   2.422       .  S
Zr700       O706   2.398       .  S
Zr700       O707   2.381   1_556  S
Zr701       O703   2.435       .  S
Zr701       O725   2.436       .  S
Zr701       O727   2.390       .  S
Zr701       O705   2.395       .  S
Zr701       O708   2.410       .  S
Zr702       O728   2.435       .  S
Zr702       O729   2.435       .  S
Zr702       O704   2.436       .  S
Zr702       O705   2.359   1_556  S
Zr702       O706   2.421       .  S
O703        H740   0.990       .  S
O704        H735   0.990       .  S
O704        H749   0.990       .  S
O706        H732   0.965       .  S
O707       Zr717   2.388       .  S
O708       Zr717   2.362       .  S
O708        H733   0.966       .  S
C709        C756   1.432       .  S
C710        C772   1.433       .  S
O712        H748   0.990       .  S
O713        C715   1.279       .  A
O714        C715   1.280       .  A
C715        C753   1.432       .  S
O716       Zr717   2.441       .  S
O716        H745   0.990       .  S
Zr717       O720   2.438       .  S
Zr717       O721   2.442       .  S
Zr717       O722   2.431       .  S
O718        C723   1.281       .  A
O719        H736   0.988       .  S
O719        H751   0.990       .  S
O720        H737   0.990       .  S
O721        H741   0.990       .  S
O721        H750   0.990       .  S
O722        C723   1.282       .  A
C723        C769   1.435       .  S
O724        H743   0.990       .  S
O724        H747   0.990   1_556  S
O725        H739   0.990       .  S
O725        H746   0.989       .  S
O726        C730   1.272       .  A
O727        C730   1.264       .  A
O728        H738   0.990       .  S
O729        H742   0.990       .  S
C753        C754   1.204       .  T
C755        C756   1.204       .  T
C757        C758   1.203       .  T
C759        C760   1.207       .  T
C761        C762   1.222       .  T
C762        C763   1.439       .  S
C763        C764   1.222       .  T
C765        C766   1.223       .  T
C766        C767   1.440       .  S
C767        C768   1.223       .  T
C769        C770   1.206       .  T
C771        C772   1.205       .  T
C773        C774   1.204       .  T
C774        C775   1.409       .  S
C775        C776   1.204       .  T
C777        C778   1.206       .  T
C779        C780   1.205       .  T
C781        C782   1.221       .  T
C782       C1047   1.437       .  S
C783        C784   1.221       .  T
C783       C1046   1.437       .  S
C785        C786   1.222       .  T
C786       C1051   1.438       .  S
C787        C788   1.224       .  T
C787       C1050   1.441       .  S
C789        C790   1.203       .  T
C790        C791   1.407       .  S
C791        C792   1.203       .  T
C793        C795   1.542       .  S
C793        C796   1.536   1_565  S
C793       C1049   1.500       .  S
C794        C800   1.533       .  S
C794        C799   1.534       .  S
C794       C1045   1.496       .  S
C795        C803   1.382       .  A
C796        C807   1.375       .  A
C797        C811   1.377       .  A
C798        C801   1.369       .  A
C799        C805   1.376       .  A
C800        C808   1.374       .  A
C801        H814   1.083       .  S
N802        C803   1.359       .  A
N802       C1041   1.401       .  S
C803        H804   1.082       .  S
C805        H815   1.083       .  S
C805        N806   1.356       .  A
N806       C1053   1.400       .  S
C807        H813   1.083   1_545  S
C808        H810   1.083       .  S
C808        N809   1.355       .  A
N809       C1044   1.399       .  S
C811        H812   1.083       .  S
C816        C818   1.537   1_545  S
C816        C819   1.533       .  S
C816       C1048   1.496       .  S
C817        C823   1.532       .  S
C817        C822   1.534       .  S
C817       C1052   1.497       .  S
C818        C826   1.379       .  A
C818        C821   1.402       .  A
C819        C830   1.374       .  A
C820        C834   1.375       .  A
C820        C823   1.400       .  A
C821        C824   1.372       .  A
C822        C828   1.375       .  A
C823        C831   1.374       .  A
C824        H837   1.083       .  S
C824        N825   1.355       .  A
N825        C826   1.357       .  A
N825       C1034   1.400       .  S
C826        H827   1.082       .  S
C828        H838   1.083       .  S
C828        N829   1.356       .  A
N829       C1037   1.400       .  S
C830        H836   1.083       .  S
C831        H833   1.083       .  S
C831        N832   1.355       .  A
N832        C834   1.355       .  A
N832       C1035   1.399       .  S
C834        H835   1.083       .  S
C839        C841   1.527       .  S
C839        C842   1.534       .  S
C840        C844   1.539       .  S
C840        C845   1.535       .  S
C840       C1028   1.501       .  S
C841        C849   1.369       .  A
C841        C844   1.401       .  A
C842        C853   1.376       .  A
C842        C845   1.402       .  A
C843        C857   1.376       .  A
C843        C846   1.400       .  A
C844        C847   1.379       .  A
C845        C851   1.373       .  A
C846        C854   1.375       .  A
C847        H860   1.082       .  S
C847        N848   1.358       .  A
N848        C849   1.352       .  A
N848       C1024   1.398       .  S
C851        H861   1.082       .  S
C851        N852   1.355       .  A
N852        C853   1.356       .  A
N852       C1056   1.400       .  S
C854        H856   1.083       .  S
C854        N855   1.356       .  A
N855        C857   1.357       .  A
N855       C1022   1.401       .  S
C862        C864   1.534       .  S
C862        C865   1.536       .  S
C862       C1025   1.502       .  S
C863        C867   1.538       .  S
C863        C868   1.532       .  S
C863       C1029   1.497       .  S
C864        C872   1.372       .  A
C864        C867   1.402       .  A
C865        C876   1.376       .  A
C865        C868   1.400       .  A
C866        C880   1.376       .  A
C866        C869   1.401       .  A
C867        C870   1.380       .  A
C868        C874   1.374       .  A
C869        C877   1.378       .  A
C870        H883   1.082       .  S
C870        N871   1.358       .  A
N871        C872   1.355       .  A
N871       C1019   1.402       .  S
C872        H873   1.083       .  S
C874        H884   1.083       .  S
C874        N875   1.355       .  A
N875        C876   1.357       .  A
N875       C1040   1.400       .  S
C876        H882   1.082       .  S
C877        H879   1.083       .  S
C877        N878   1.357       .  A
N878        C880   1.357       .  A
N878       C1018   1.404       .  S
C880        H881   1.082       .  S
Zr885       O886   2.432       .  S
Zr885       O887   2.417   1_554  S
Zr885       O888   2.382       .  S
Zr885       O891   2.418       .  S
Zr885       O893   2.395   1_554  S
Zr885       O894   2.368       .  S
Zr885       O895   2.439       .  S
Zr885       O896   2.397       .  S
O886        H942   0.990       .  S
O886        H950   0.989       .  S
O887        C907   1.280       .  A
O888        C909   1.265       .  A
O889       Zr899   2.431       .  S
O890       Zr898   2.388       .  S
O890        C909   1.266   1_556  A
O891        C908   1.280       .  A
O892       Zr900   2.431   1_655  S
O892        C907   1.282       .  A
O893       Zr898   2.401       .  S
O893       Zr900   2.338   1_655  S
O894       Zr900   2.394   1_654  S
O895       Zr898   2.413   1_554  S
O895       Zr915   2.390       .  S
O895        H932   0.963       .  S
O896       Zr915   2.405       .  S
Zr897       O922   2.439   1_554  S
Zr897       O916   2.428       .  S
Zr897       O924   2.411       .  S
Zr897       O903   2.409       .  S
Zr897       O906   2.411       .  S
Zr898       O917   2.436   1_556  S
Zr898       O910   2.432       .  S
Zr898       O911   2.424       .  S
Zr898       O904   2.398       .  S
Zr898       O905   2.382   1_556  S
Zr899       O901   2.436       .  S
Zr899       O923   2.437       .  S
Zr899       O925   2.386       .  S
Zr899       O903   2.398       .  S
Zr899       O906   2.408       .  S
Zr900       O902   2.437   1_455  S
Zr900       O904   2.420   1_455  S
O901        H938   0.990       .  S
O902        H933   0.990       .  S
O902        H947   0.990       .  S
O904        H930   0.966       .  S
O905       Zr915   2.389       .  S
O906        H931   0.966       .  S
C907       C1023   1.430       .  S
C908       C1043   1.431       .  S
C909        C994   1.440       .  S
O910        H946   0.990       .  S
O911        C913   1.280       .  A
O912        C913   1.280       .  A
C913       C1021   1.434       .  S
O914       Zr915   2.440       .  S
O914        H943   0.990       .  S
Zr915       O918   2.437       .  S
Zr915       O919   2.441       .  S
Zr915       O920   2.427       .  S
O916        C921   1.280       .  A
O917        H934   0.987       .  S
O917        H949   0.990       .  S
O918        H935   0.990       .  S
O919        H939   0.990       .  S
C921       C1042   1.434       .  S
O922        H941   0.990       .  S
O922        H945   0.991   1_556  S
O923        H937   0.990       .  S
O923        H944   0.990       .  S
O924        C928   1.273       .  A
O925        C928   1.264       .  A
O926        H936   0.990       .  S
O927        H940   0.990       .  S
C928        C975   1.429       .  S
Zr951       O952   2.442       .  S
Zr951       O953   2.435   1_554  S
Zr951       O954   2.370       .  S
Zr951       O957   2.419       .  S
Zr951       O959   2.401   1_554  S
Zr951       O960   2.366       .  S
Zr951       O961   2.441       .  S
Zr951       O962   2.400       .  S
O952       H1008   0.990       .  S
O952       H1016   0.990       .  S
O953        C973   1.282       .  A
O954        C975   1.266       .  A
O955       Zr965   2.427       .  S
O955        C974   1.280       .  A
O956       Zr964   2.377   1_556  S
O956        C975   1.264   1_556  A
O957        C974   1.279       .  A
O958       Zr966   2.418       .  S
O958        C973   1.279       .  A
O959       Zr964   2.411   1_556  S
O959       Zr966   2.353       .  S
O960       Zr965   2.390       .  S
O960       Zr966   2.393   1_554  S
O960        H995   0.966       .  S
O961       Zr964   2.414       .  S
O961       Zr981   2.386       .  S
O961        H998   0.966       .  S
O962       Zr965   2.373       .  S
O962       Zr981   2.404       .  S
Zr963       O988   2.437   1_554  S
Zr963       O982   2.433       .  S
Zr963       O990   2.428   1_554  S
Zr963       O978   2.444   1_554  S
Zr963       O969   2.399       .  S
Zr963       O970   2.408   1_554  S
Zr963       O971   2.376       .  S
Zr963       O972   2.412       .  S
Zr964       O983   2.438       .  S
Zr964       O976   2.435   1_554  S
Zr964       O977   2.425   1_554  S
Zr964       O970   2.394   1_554  S
Zr964       O971   2.378       .  S
Zr965       O967   2.438       .  S
Zr965       O989   2.437       .  S
Zr965       O991   2.395       .  S
Zr965       O969   2.391       .  S
Zr965       O972   2.404       .  S
Zr966       O992   2.436       .  S
Zr966       O993   2.434       .  S
Zr966       O968   2.434       .  S
Zr966       O969   2.354   1_556  S
Zr966       O970   2.416       .  S
O967       H1004   0.990       .  S
O968        H999   0.990       .  S
O968       H1013   0.990       .  S
O970        H996   0.966       .  S
O971       Zr981   2.388       .  S
O972       Zr981   2.370       .  S
O972        H997   0.966       .  S
C973       C1020   1.435       .  S
C974       C1036   1.431       .  S
O976       H1012   0.990       .  S
O977        C979   1.280       .  A
O978        C979   1.282       .  A
C979       C1017   1.439       .  S
O980       Zr981   2.441       .  S
O980       H1009   0.990       .  S
Zr981       O984   2.438       .  S
Zr981       O985   2.440       .  S
Zr981       O986   2.419       .  S
O982        C987   1.282       .  A
O983       H1000   0.990       .  S
O983       H1015   0.988       .  S
O984       H1001   0.990       .  S
O985       H1005   0.990       .  S
O985       H1014   0.990       .  S
O986        C987   1.280       .  A
C987       C1033   1.432       .  S
O988       H1007   0.990       .  S
O988       H1011   0.990       .  S
O989       H1003   0.990       .  S
O989       H1010   0.989       .  S
O990        C994   1.276   1_556  A
O991        C994   1.269       .  A
O992       H1002   0.990       .  S
O993       H1006   0.990       .  S
C1017      C1018   1.208       .  T
C1019      C1020   1.206       .  T
C1021      C1022   1.205       .  T
C1023      C1024   1.203       .  T
C1025      C1026   1.225       .  T
C1026      C1027   1.443       .  S
C1027      C1028   1.225       .  T
C1029      C1030   1.222       .  T
C1030      C1031   1.437       .  S
C1031      C1032   1.221       .  T
C1033      C1034   1.204       .  T
C1035      C1036   1.203       .  T
C1037      C1038   1.204       .  T
C1038      C1039   1.410       .  S
C1039      C1040   1.204       .  T
C1041      C1042   1.205       .  T
C1043      C1044   1.204       .  T
C1045      C1046   1.221       .  T
C1047      C1048   1.221       .  T
C1049      C1050   1.224       .  T
C1051      C1052   1.222       .  T
C1053      C1054   1.204       .  T
C1054      C1055   1.409       .  S
C1055      C1056   1.204       .  T
