geometry optimzed in LAMMPS
_audit_creation_date              2020-11-30 
_audit_creation_method            'lammps2cif' 
_symmetry_space_group_name_H-M    'P1' 
_symmetry_Int_Tables_number       1 
_symmetry_cell_setting            triclinic 
loop_ 
_symmetry_equiv_pos_as_xyz 
  x,y,z 
_cell_length_a                    46.401784130776164 
_cell_length_b                    46.17200929967298 
_cell_length_c                    46.2274515584911 
_cell_angle_alpha                 90.95226953346551 
_cell_angle_beta                  89.58376295548705 
_cell_angle_gamma                 90.2416536955457 
loop_ 
_atom_site_label 
_atom_site_type_symbol 
_atom_site_fract_x 
_atom_site_fract_y 
_atom_site_fract_z 
_atom_site_charge 
O1          O  0.05880135  0.45243109  0.24325562    -0.80690
O2          O  0.99117021  0.53437990  0.20614258    -0.80710
O3          O  0.98666799  0.45241200  0.24902150    -0.80720
O4          O  0.03755946  0.51483778  0.23830858    -0.80660
O5          O  0.97649230  0.47983822  0.21204622    -0.80780
O6          O  0.08178777  0.50476991  0.23286939    -0.80700
O7          O  0.01146179  0.56737643  0.23245799    -0.80690
O8          O  0.01562495  0.44201520  0.26025139    -0.80720
C9          C  0.03813260  0.43537801  0.24558850     1.09000
C10         C  0.00112633  0.55927961  0.20895344     1.08890
C11         C  0.97785836  0.45526218  0.22309274     1.09020
C12         C  0.06155409  0.51984750  0.22441849     1.08900
O13         O  0.06920253  0.52051369  0.29165962    -0.80690
O14         O  0.95401353  0.49167006  0.26829834    -0.80760
O15         O  0.99895123  0.45757639  0.31171386    -0.80700
O16         O  0.00458271  0.57494955  0.28784014    -0.80680
O17         O  0.97185039  0.54410980  0.27049213    -0.80730
O18         O  0.04568360  0.46692378  0.30316356    -0.80700
O19         O  0.02435586  0.52289544  0.30078648    -0.80660
O20         O  0.97292316  0.46425569  0.30172269    -0.80730
Co21       Co  0.06127052  0.48691101  0.26635222     1.51530
Co22       Co  0.97724915  0.51233873  0.23892174     1.51690
Co23       Co  0.00318871  0.48063111  0.27819423     1.51570
Co24       Co  0.01923445  0.54389489  0.26565598     1.51470
O25         O  0.01982526  0.50355678  0.25039869    -1.42620
C26         C  0.04898836  0.53069753  0.30710938     1.08930
C27         C  0.95108704  0.47555791  0.28996231     1.09020
C28         C  0.02513867  0.45700941  0.31942647     1.08960
C29         C  0.97969899  0.56436105  0.28839086     1.08930
O30         O  0.54444529  0.98927496  0.27643790    -0.80690
O31         O  0.46157023  0.99810031  0.26172670    -0.80710
O32         O  0.52326488  0.05858250  0.26301058    -0.80720
O33         O  0.51272738  0.94202834  0.26197721    -0.80660
O34         O  0.47796663  0.05205915  0.24893002    -0.80780
O35         O  0.55818864  0.93688883  0.24913373    -0.80700
O36         O  0.49246740  0.96127909  0.26569345    -0.80690
O37         O  0.56852879  0.02390162  0.25597491    -0.80720
C38         C  0.55967587  0.01173103  0.27873686     1.09000
C39         C  0.47228025  0.97717080  0.27613121     1.08890
C40         C  0.49660574  0.06181942  0.26641261     1.09020
C41         C  0.53775414  0.93083561  0.26627105     1.08900
O42         O  0.53350158  0.95225939  0.19687701    -0.80690
O43         O  0.48906186  0.03247649  0.18796747    -0.80760
O44         O  0.55650358  0.02210421  0.19474157    -0.80700
O45         O  0.45908679  0.95478019  0.22582632    -0.80680
O46         O  0.46922291  0.98648211  0.19682154    -0.80730
O47         O  0.57335732  0.98582287  0.21968287    -0.80700
O48         O  0.49921968  0.92230661  0.21034318    -0.80660
O49         O  0.51497013  0.06703436  0.20431260    -0.80730
Co50       Co  0.53813091  0.97117724  0.23748182     1.51530
Co51       Co  0.47487776  0.01724345  0.22421615     1.51690
Co52       Co  0.54001282  0.04067069  0.22886932     1.51570
Co53       Co  0.50195050  0.96220319  0.22421195     1.51470
O54         O  0.51298779  0.00479954  0.23168516    -1.42620
C55         C  0.51699107  0.93057585  0.19115675     1.08930
C56         C  0.49498243  0.05843292  0.18791160     1.09020
C57         C  0.57124352  0.99915787  0.19613459     1.08960
C58         C  0.45050233  0.97083295  0.20681141     1.08930
O59         O  0.23124496  0.04488766  0.45892301    -0.80690
O60         O  0.21851381  0.92415616  0.52384529    -0.80710
O61         O  0.20089689  0.95174460  0.45523648    -0.80720
O62         O  0.20060263  0.01815324  0.52233591    -0.80660
O63         O  0.21341936  0.90829032  0.47227293    -0.80780
O64         O  0.22189156  0.05872361  0.51222054    -0.80700
O65         O  0.19789974  0.96322151  0.52005856    -0.80690
O66         O  0.20633068  0.00687420  0.45997206    -0.80720
C67         C  0.21115945  0.03037242  0.44887760     1.09000
C68         C  0.19943303  0.94051026  0.53338424     1.08890
C69         C  0.19424747  0.92625071  0.46392801     1.09020
C70         C  0.20460022  0.04470925  0.52817778     1.08900
O71         O  0.27273220  0.03407645  0.50748292    -0.80690
O72         O  0.27074128  0.92983939  0.47733714    -0.80760
O73         O  0.26903026  0.00522078  0.44007974    -0.80700
O74         O  0.25822960  0.95801013  0.54474408    -0.80680
O75         O  0.26469005  0.92845874  0.50647692    -0.80730
O76         O  0.27456572  0.03088257  0.48071886    -0.80700
O77         O  0.25971318  0.01575264  0.54874751    -0.80660
O78         O  0.26167545  0.94914744  0.43610804    -0.80730
Co79       Co  0.23505612  0.02233856  0.49479665     1.51530
Co80       Co  0.23082879  0.94303110  0.48627376     1.51690
Co81       Co  0.23480939  0.97893242  0.44948297     1.51570
Co82       Co  0.22962963  0.98779782  0.53241841     1.51470
O83         O  0.24665780  0.98194378  0.49176522    -1.42620
C84         C  0.27602124  0.03234874  0.53437586     1.08930
C85         C  0.27981522  0.93970784  0.45340198     1.09020
C86         C  0.28447911  0.02139525  0.45641735     1.08960
C87         C  0.27213402  0.93795286  0.53162823     1.08930
O88         O  0.01277697  0.25157445  0.58317509    -0.80690
O89         O  0.97611544  0.31094371  0.47404596    -0.80710
O90         O  0.04608089  0.29440347  0.49929090    -0.80720
O91         O  0.93791365  0.24319318  0.53589263    -0.80660
O92         O  0.02760740  0.28392335  0.45829016    -0.80780
O93         O  0.96482354  0.27440629  0.55825755    -0.80700
O94         O  0.94136443  0.28840924  0.49875208    -0.80690
O95         O  0.02757742  0.28225377  0.54964044    -0.80720
C96         C  0.02827771  0.27324526  0.57568196     1.09000
C97         C  0.95284439  0.31160445  0.48856052     1.08890
C98         C  0.03871049  0.30229538  0.47480069     1.09020
C99         C  0.94002244  0.26524062  0.55196768     1.08900
O100        O  0.97691529  0.21191876  0.54701035    -0.80690
O101        O  0.99740547  0.23431687  0.45214085    -0.80760
O102        O  0.06800623  0.24388988  0.52703011    -0.80700
O103        O  0.92130267  0.23018807  0.47832032    -0.80680
O104        O  0.94543991  0.26318472  0.45578968    -0.80730
O105        O  0.02737428  0.21990619  0.53428954    -0.80700
O106        O  0.97007260  0.20617406  0.49986385    -0.80660
O107        O  0.03800663  0.23279271  0.47766371    -0.80730
Co108      Co  0.99702148  0.24998870  0.54483934     1.51530
Co109      Co  0.98764077  0.27288182  0.46180836     1.51690
Co110      Co  0.03127819  0.25739581  0.51328777     1.51570
Co111      Co  0.95531108  0.24631018  0.49724241     1.51470
O112        O  0.99077702  0.26341760  0.50490293    -1.42620
C113        C  0.97274274  0.19554254  0.52482578     1.08930
C114        C  0.02098007  0.22300674  0.45838494     1.09020
C115        C  0.05463750  0.22168265  0.53635611     1.08960
C116        C  0.93320511  0.23875084  0.45507818     1.08930
O117        O  0.44500118  0.25471774  0.00977345    -0.80690
O118        O  0.50193670  0.28497878  0.95449649    -0.80710
O119        O  0.51102262  0.28522100  0.01479234    -0.80720
O120        O  0.45642125  0.21948797  0.92181412    -0.80660
O121        O  0.54845632  0.29967759  0.99037527    -0.80780
O122        O  0.43559364  0.24367577  0.95580814    -0.80700
O123        O  0.50219951  0.25926622  0.91354631    -0.80690
O124        O  0.48690114  0.27643970  0.01414275    -0.80720
C125        C  0.45937562  0.27724596  0.01583844     1.09000
C126        C  0.50243367  0.28331399  0.92739036     1.08890
C127        C  0.53305293  0.30222410  0.01267780     1.09020
C128        C  0.44215902  0.24120703  0.92973147     1.08900
O129        O  0.45592819  0.18350596  0.96148568    -0.80690
O130        O  0.55664592  0.24386228  0.00559931    -0.80760
O131        O  0.48331645  0.22992425  0.04185426    -0.80700
O132        O  0.53947773  0.21515265  0.92448970    -0.80680
O133        O  0.52023844  0.22566811  0.96535210    -0.80730
O134        O  0.47335630  0.19563193  0.01286120    -0.80700
O135        O  0.49746822  0.17840225  0.93847997    -0.80660
O136        O  0.53258623  0.24755029  0.04645852    -0.80730
Co137      Co  0.45486288  0.22011827  0.98444271     1.51530
Co138      Co  0.52854991  0.26415264  0.97860447     1.51690
Co139      Co  0.51181677  0.24065090  0.01166910     1.51570
Co140      Co  0.49850396  0.21902366  0.92670354     1.51470
O141        O  0.49573162  0.23279805  0.97186525    -1.42620
C142        C  0.47601143  0.16767924  0.95103753     1.08930
C143        C  0.55470394  0.23965603  0.03278252     1.09020
C144        C  0.47174887  0.20590598  0.03766151     1.08960
C145        C  0.54238240  0.21686270  0.95082142     1.08930
O146        O  0.25140454  0.54011443  0.04996295    -0.80690
O147        O  0.26229186  0.43686439  0.98602253    -0.80710
O148        O  0.23540958  0.46990206  0.06852830    -0.80720
O149        O  0.27546915  0.50598980  0.97274301    -0.80660
O150        O  0.24086382  0.43223195  0.03999202    -0.80780
O151        O  0.25796124  0.54702691  0.99095203    -0.80700
O152        O  0.27921878  0.47958923  0.97595277    -0.80690
O153        O  0.23529929  0.50105656  0.07281439    -0.80720
C154        C  0.25157753  0.52316456  0.07111780     1.09000
C155        C  0.28311072  0.45267008  0.97719619     1.08890
C156        C  0.24742277  0.44629296  0.06267359     1.09020
C157        C  0.27681041  0.53335163  0.97589233     1.08900
O158        O  0.19622355  0.52689870  0.98942298    -0.80690
O159        O  0.18160581  0.45286333  0.01770537    -0.80760
O160        O  0.18265576  0.49638798  0.07411107    -0.80700
O161        O  0.23803937  0.47132990  0.93486408    -0.80680
O162        O  0.20439085  0.45742036  0.96551956    -0.80730
O163        O  0.18961524  0.53259830  0.04450129    -0.80700
O164        O  0.22550776  0.52092106  0.95420128    -0.80660
O165        O  0.17999653  0.46580803  0.06373241    -0.80730
Co166      Co  0.22510491  0.53402372  0.01812769     1.51530
Co167      Co  0.22341517  0.44807918  0.00393113     1.51690
Co168      Co  0.20871741  0.48693840  0.04266439     1.51570
Co169      Co  0.23776947  0.48549397  0.97411436     1.51470
O170        O  0.23656275  0.49125534  0.01461874    -1.42620
C171        C  0.20342483  0.53236578  0.96446609     1.08930
C172        C  0.16699940  0.45783671  0.04077112     1.09020
C173        C  0.17462609  0.52005881  0.06409216     1.08960
C174        C  0.21507990  0.45734007  0.93985270     1.08930
O175        O  0.51466852  0.05154365  0.74453015    -0.80690
O176        O  0.45906408  0.95491169  0.72087900    -0.80710
O177        O  0.53350809  0.00255378  0.69124482    -0.80720
O178        O  0.45172157  0.00833995  0.72417625    -0.80660
O179        O  0.51160877  0.95979417  0.69491251    -0.80780
O180        O  0.45907659  0.03969476  0.75828713    -0.80700
O181        O  0.41796906  0.96112601  0.74431045    -0.80690
O182        O  0.53294390  0.02833153  0.70586196    -0.80720
C183        C  0.52691263  0.05157688  0.71953989     1.09000
C184        C  0.43469483  0.94518866  0.72883773     1.08890
C185        C  0.52520576  0.97875155  0.67981444     1.09020
C186        C  0.45499619  0.03434198  0.73202054     1.08900
O187        O  0.47603442  0.00997641  0.80910814    -0.80690
O188        O  0.53707346  0.93608521  0.74563636    -0.80760
O189        O  0.55123982  0.00883536  0.75356340    -0.80700
O190        O  0.45523420  0.95351412  0.78810048    -0.80680
O191        O  0.48969543  0.92602525  0.77214622    -0.80730
O192        O  0.53035380  0.02083346  0.79504992    -0.80700
O193        O  0.43579961  0.00336879  0.78549955    -0.80660
O194        O  0.55356629  0.98005767  0.73880265    -0.80730
Co195      Co  0.49515849  0.02765546  0.77623545     1.51530
Co196      Co  0.49851880  0.94630120  0.73504547     1.51690
Co197      Co  0.51598956  0.99986415  0.72884575     1.51570
Co198      Co  0.45410286  0.97940278  0.75546917     1.51470
O199        O  0.49598837  0.98586218  0.75928833    -1.42620
C200        C  0.44910221  0.00672522  0.80902538     1.08930
C201        C  0.55675241  0.95439549  0.74806543     1.09020
C202        C  0.55249816  0.01546829  0.78060678     1.08960
C203        C  0.47376755  0.93472195  0.79260892     1.08930
O204        O  0.72694265  0.48439819  0.04954309    -0.80690
O205        O  0.73746689  0.50860316  0.92584168    -0.80710
O206        O  0.72340169  0.56905277  0.00454482    -0.80720
O207        O  0.70693421  0.44076018  0.98757645    -0.80660
O208        O  0.71385827  0.53892879  0.96818904    -0.80780
O209        O  0.72391347  0.45744275  0.03096445    -0.80700
O210        O  0.70605155  0.47769948  0.94243691    -0.80690
O211        O  0.70436529  0.52008534  0.02919240    -0.80720
C212        C  0.70995051  0.50595749  0.05142109     1.09000
C213        C  0.71308142  0.49705576  0.92474606     1.08890
C214        C  0.70907391  0.56274235  0.98172556     1.09020
C215        C  0.70473528  0.44451854  0.01475061     1.08900
O216        O  0.76477798  0.43985880  0.02221992    -0.80690
O217        O  0.76644783  0.55305087  0.94415157    -0.80760
O218        O  0.76686297  0.52841824  0.03804382    -0.80700
O219        O  0.76697213  0.46695719  0.93314594    -0.80680
O220        O  0.79042791  0.50054476  0.95712228    -0.80730
O221        O  0.78129372  0.48534965  0.05556243    -0.80700
O222        O  0.76701283  0.43030362  0.97572820    -0.80660
O223        O  0.77490436  0.54602855  0.99012194    -0.80730
Co224      Co  0.75995637  0.48133567  0.02116609     1.51530
Co225      Co  0.75254574  0.51961478  0.96326668     1.51690
Co226      Co  0.73729262  0.52931767  0.00485806     1.51570
Co227      Co  0.73614358  0.45510831  0.96079426     1.51470
O228        O  0.74098037  0.48873347  0.98778430    -1.42620
C229        C  0.77559317  0.42662900  0.00103296     1.08930
C230        C  0.78120778  0.55798250  0.96638951     1.09020
C231        C  0.78337309  0.51293234  0.05419107     1.08960
C232        C  0.79066172  0.47959470  0.93960992     1.08930
O233        O  0.05706647  0.73890297  0.53762019    -0.80690
O234        O  0.96642300  0.70827177  0.47886342    -0.80710
O235        O  0.96644034  0.74440747  0.54483184    -0.80720
O236        O  0.05529002  0.72099459  0.46767510    -0.80660
O237        O  0.95953432  0.72027630  0.50331482    -0.80780
O238        O  0.06871786  0.73510083  0.51160746    -0.80700
O239        O  0.00464432  0.70008915  0.45174002    -0.80690
O240        O  0.01829023  0.74527592  0.56446087    -0.80720
C241        C  0.04009962  0.73043894  0.55764872     1.09000
C242        C  0.98149022  0.69110553  0.46287484     1.08890
C243        C  0.95513391  0.72411584  0.53014307     1.09020
C244        C  0.07060423  0.71818561  0.48982147     1.08900
O245        O  0.06994288  0.77500842  0.47533675    -0.80690
O246        O  0.94393789  0.77220753  0.50279233    -0.80760
O247        O  0.02876134  0.80366907  0.53591274    -0.80700
O248        O  0.98599064  0.75704436  0.43630632    -0.80680
O249        O  0.94231088  0.75216323  0.45437970    -0.80730
O250        O  0.07415196  0.79416841  0.52551928    -0.80700
O251        O  0.02732231  0.78040584  0.46293556    -0.80660
O252        O  0.97970167  0.79832458  0.51110579    -0.80730
Co253      Co  0.04483023  0.76964542  0.51069966     1.51530
Co254      Co  0.97432788  0.75104771  0.47971961     1.51690
Co255      Co  0.99888782  0.77140420  0.53697177     1.51570
Co256      Co  0.01869228  0.74009056  0.45773879     1.51470
O257        O  0.01007015  0.74626562  0.50103861    -1.42620
C258        C  0.05267334  0.78549684  0.45812887     1.08930
C259        C  0.95334061  0.79527263  0.51351817     1.09020
C260        C  0.05477819  0.81217523  0.53207390     1.08960
C261        C  0.95898982  0.76051123  0.43480738     1.08930
O262        O  0.00822630  0.53333231  0.79552441    -0.80690
O263        O  0.97906211  0.46013222  0.80297519    -0.80710
O264        O  0.94418869  0.53253923  0.75091993    -0.80720
O265        O  0.04177611  0.46782448  0.78860539    -0.80660
O266        O  0.94790143  0.50934895  0.79156573    -0.80780
O267        O  0.06337579  0.51088632  0.79456463    -0.80700
O268        O  0.00423792  0.43054713  0.77544952    -0.80690
O269        O  0.99560459  0.55657674  0.75587190    -0.80720
C270        C  0.00331546  0.55667528  0.78218861     1.09000
C271        C  0.99495429  0.43798867  0.80006211     1.08890
C272        C  0.94253222  0.53238766  0.77827612     1.09020
C273        C  0.05953139  0.48473217  0.80194833     1.08900
O274        O  0.05577859  0.48336003  0.74148690    -0.80690
O275        O  0.93133947  0.48437011  0.73638013    -0.80760
O276        O  0.01805739  0.52224529  0.70796486    -0.80700
O277        O  0.99682479  0.44767086  0.71683451    -0.80680
O278        O  0.96240726  0.43661964  0.74735296    -0.80730
O279        O  0.04168436  0.53692955  0.74594352    -0.80700
O280        O  0.04918016  0.43523969  0.74003551    -0.80660
O281        O  0.96510728  0.49612114  0.70512706    -0.80730
Co282      Co  0.02949177  0.50574131  0.77166965     1.51530
Co283      Co  0.95650540  0.47344834  0.76988184     1.51690
Co284      Co  0.98141706  0.52537466  0.73000100     1.51570
Co285      Co  0.01931572  0.46063332  0.75029093     1.51470
O286        O  0.99262370  0.49293404  0.75525929    -1.42620
C287        C  0.06183592  0.45800072  0.73144495     1.08930
C288        C  0.93913734  0.49104320  0.71073566     1.09020
C289        C  0.04079291  0.53243090  0.71911110     1.08960
C290        C  0.97238067  0.43641170  0.72177965     1.08930
O291        O  0.52398990  0.77541641  0.05102416    -0.80690
O292        O  0.48466111  0.82167914  0.95819947    -0.80710
O293        O  0.54923899  0.75259630  0.95524315    -0.80720
O294        O  0.43988985  0.78887877  0.01883824    -0.80660
O295        O  0.53385197  0.79648267  0.95266351    -0.80780
O296        O  0.47382502  0.77326058  0.04652568    -0.80700
O297        O  0.44090003  0.80456486  0.96534849    -0.80690
O298        O  0.54574599  0.76590493  0.00933253    -0.80720
C299        C  0.54612161  0.77578012  0.03527625     1.09000
C300        C  0.45973514  0.82479771  0.96824345     1.08890
C301        C  0.55425993  0.77942758  0.95541616     1.09020
C302        C  0.45084499  0.78591357  0.04318197     1.08900
O303        O  0.48516181  0.73189217  0.02602933    -0.80690
O304        O  0.50862579  0.74817541  0.92157079    -0.80760
O305        O  0.54465936  0.70935182  0.99350120    -0.80700
O306        O  0.44030869  0.74345448  0.94854649    -0.80680
O307        O  0.45783937  0.77769013  0.92213707    -0.80730
O308        O  0.51290718  0.72687199  0.02583635    -0.80700
O309        O  0.44207688  0.72898727  0.00465848    -0.80660
O310        O  0.49911183  0.71660695  0.95609532    -0.80730
Co311      Co  0.50270817  0.77045614  0.01679123     1.51530
Co312      Co  0.49603880  0.78559304  0.94009839     1.51690
Co313      Co  0.51923459  0.73989486  0.98348134     1.51570
Co314      Co  0.44301047  0.76598488  0.98371605     1.51470
O315        O  0.48672296  0.76702460  0.97852523    -1.42620
C316        C  0.46081026  0.71901285  0.02148665     1.08930
C317        C  0.50579448  0.72218904  0.93030849     1.09020
C318        C  0.53340963  0.70892355  0.01848591     1.08960
C319        C  0.44703522  0.75266835  0.92418409     1.08930
C320        C  0.82671339  0.26486928  0.65903491     0.41910
N321        N  0.82511732  0.30915784  0.64437752     0.00800
C322        C  0.71566374  0.41020833  0.66641904    -0.07080
H323        H  0.70482426  0.34588181  0.57571486     0.06290
C324        C  0.79568351  0.40041169  0.53180758    -0.07430
Co325      Co  0.77494161  0.34350239  0.66337334     0.74180
N326        N  0.73622820  0.35170347  0.60987867    -0.26610
Co327      Co  0.74938916  0.39527191  0.60929342     0.74070
C328        C  0.76897455  0.39457368  0.51670237     0.42010
N329        N  0.83894461  0.36845174  0.57914783     0.00410
N330        N  0.76228510  0.39334779  0.56390094     0.00520
N331        N  0.73869500  0.38280446  0.69845242    -0.47460
H332        H  0.78105891  0.26953486  0.67908900     0.06280
N333        N  0.74641540  0.33366647  0.62951666     0.00800
N334        N  0.76634925  0.43890088  0.61125612     0.00540
C335        C  0.77314950  0.48562126  0.61173394     0.42150
N336        N  0.84193274  0.34695421  0.59731329    -0.26060
C337        C  0.80691300  0.34720831  0.72410054    -0.06980
N338        N  0.84200033  0.28611231  0.64641818    -0.47170
N339        N  0.75276750  0.46438466  0.61448657    -0.47390
C340        C  0.83752166  0.34693141  0.73269772     0.41920
N341        N  0.75079286  0.38035801  0.67285902     0.00790
N342        N  0.85994300  0.38968502  0.63680032    -0.26090
N343        N  0.79935451  0.30538298  0.65525271    -0.26580
N344        N  0.85108280  0.41262161  0.62282294     0.00430
H345        H  0.90110486  0.37568056  0.65111190     0.06320
H346        H  0.82119341  0.47979309  0.60028644     0.06360
N347        N  0.73810617  0.39674924  0.65338828    -0.26630
N348        N  0.78969239  0.39916076  0.55993866    -0.26240
N349        N  0.83370901  0.35535879  0.68647148     0.00800
C350        C  0.71779841  0.30739649  0.60400053     0.42190
C351        C  0.84139239  0.32228923  0.58256215    -0.07490
N352        N  0.79426617  0.44223845  0.60609126    -0.26240
H353        H  0.81677817  0.40530705  0.52309614     0.06340
N354        N  0.73616859  0.30735206  0.62623903    -0.47460
H355        H  0.84306834  0.30095434  0.59163996     0.06330
C356        C  0.89550306  0.42077476  0.63245755     0.42030
C357        C  0.79815477  0.27799568  0.66558924    -0.06990
Co358      Co  0.84039914  0.35081841  0.64096772     0.73820
N359        N  0.83955655  0.35924336  0.55196267    -0.47180
C360        C  0.71588162  0.40030981  0.69636019     0.42290
N361        N  0.85259385  0.35134206  0.70772455    -0.47170
Co362      Co  0.81911934  0.40642332  0.59247765     0.73890
C363        C  0.80049202  0.47061747  0.60607417    -0.07500
C364        C  0.71731853  0.33697075  0.59307682    -0.07060
N365        N  0.80673353  0.35259418  0.69538901    -0.26590
N366        N  0.74853614  0.39072102  0.53824475    -0.47350
H367        H  0.69967120  0.42302483  0.65560932     0.06300
C368        C  0.88777264  0.39208019  0.64152884    -0.07470
Cl369      Cl  0.79564022  0.37486472  0.62727133    -0.50470
C370        C  0.84261487  0.33026630  0.55249871     0.42060
H371        H  0.78845476  0.33994949  0.73647847     0.06270
N372        N  0.87161749  0.43259105  0.62102325    -0.47180
C373        C  0.56584402  0.36796906  0.87878727     0.41910
N374        N  0.60317503  0.36733299  0.85159798     0.00800
C375        C  0.61388843  0.45648203  0.73250003    -0.07080
H376        H  0.52884030  0.37419249  0.72307378     0.06290
C377        C  0.61077994  0.29441253  0.74140934    -0.07430
Co378      Co  0.59277171  0.41041456  0.80557353     0.74180
N379        N  0.56040368  0.38625664  0.75585414    -0.26610
Co380      Co  0.60467958  0.38458217  0.73970443     0.74070
C381        C  0.59076920  0.29675072  0.71745469     0.42010
N382        N  0.64480563  0.30326975  0.80602878     0.00410
N383        N  0.60184172  0.33936165  0.73367170     0.00520
N384        N  0.59939641  0.46729834  0.77745926    -0.47460
H385        H  0.54309737  0.40144684  0.85151064     0.06280
N386        N  0.55694511  0.39514784  0.78293972     0.00800
N387        N  0.64849225  0.38174164  0.72819151     0.00540
C388        C  0.69116227  0.39255235  0.71427168     0.42150
N389        N  0.64149110  0.31492768  0.83217996    -0.26060
C390        C  0.63973487  0.45039480  0.82406355    -0.06980
N391        N  0.59205348  0.35574076  0.87503156    -0.47170
N392        N  0.66313604  0.39970557  0.71121162    -0.47390
C393        C  0.66764851  0.44931443  0.83621262     0.41920
N394        N  0.60025365  0.43905146  0.77303403     0.00790
N395        N  0.68784113  0.35511212  0.82191957    -0.26090
N396        N  0.58500511  0.38554134  0.83982749    -0.26580
N397        N  0.69211307  0.34218914  0.79673431     0.00430
H398        H  0.71392053  0.35880966  0.86035099     0.06320
H399        H  0.71123447  0.35679084  0.74111591     0.06360
N400        N  0.60789200  0.43116927  0.74682429    -0.26630
N401        N  0.61811367  0.32133790  0.74841855    -0.26240
N402        N  0.64963448  0.40660700  0.83598513     0.00800
C403        C  0.51273934  0.38844978  0.76888407     0.42190
C404        C  0.64522237  0.29358026  0.85172650    -0.07490
N405        N  0.66558441  0.36273584  0.74093667    -0.26240
H406        H  0.62237735  0.27550035  0.74838826     0.06340
N407        N  0.52958773  0.39687720  0.79125973    -0.47460
H408        H  0.64757928  0.29713468  0.87476971     0.06330
C409        C  0.73271076  0.33656865  0.81963639     0.42030
C410        C  0.56143086  0.38784315  0.85588296    -0.06990
Co411      Co  0.64514049  0.36142004  0.83625670     0.73820
N412        N  0.65187620  0.27523690  0.80676541    -0.47180
C413        C  0.60836340  0.48104019  0.75381505     0.42290
N414        N  0.67259177  0.42164720  0.84397896    -0.47170
Co415      Co  0.65478128  0.33208952  0.77205860     0.73890
C416        C  0.69257852  0.36826419  0.73347116    -0.07500
C417        C  0.53347624  0.38128975  0.74496578    -0.07060
N418        N  0.62989571  0.42354885  0.82465046    -0.26590
N419        N  0.58579372  0.32540170  0.71419223    -0.47350
H420        H  0.62055824  0.45780968  0.71009746     0.06300
C421        C  0.71227624  0.35343383  0.83755996    -0.07470
Cl422      Cl  0.62392779  0.37140691  0.78836553    -0.50470
C423        C  0.65201012  0.26679813  0.83481394     0.42060
H424        H  0.62821163  0.46947673  0.81812105     0.06270
N425        N  0.71825181  0.33004655  0.79477574    -0.47180
C426        C  0.65581704  0.17039606  0.73537626     0.41910
N427        N  0.64767102  0.17091920  0.68899829     0.00800
C428        C  0.66759743  0.28314234  0.59051283    -0.07080
H429        H  0.57045373  0.28957631  0.65249912     0.06290
C430        C  0.53721216  0.19559526  0.59655674    -0.07430
Co431      Co  0.66213441  0.22648462  0.66027927     0.74180
N432        N  0.60705437  0.26063679  0.64845291    -0.26610
Co433      Co  0.61064636  0.24818364  0.60445403     0.74070
C434        C  0.52074512  0.22155518  0.60445536     0.42010
N435        N  0.59057069  0.15232789  0.62325775     0.00410
N436        N  0.56723759  0.23080837  0.60433124     0.00520
N437        N  0.69764411  0.26449649  0.62331650    -0.47460
H438        H  0.66707153  0.21920662  0.73515598     0.06280
N439        N  0.62528766  0.25077826  0.66793787     0.00800
N440        N  0.61493037  0.23277015  0.55942799     0.00540
C441        C  0.61388705  0.22616763  0.51214126     0.42150
N442        N  0.60851582  0.14634812  0.64440246    -0.26060
C443        C  0.72696579  0.20252786  0.66248493    -0.06980
N444        N  0.64969913  0.15370681  0.71178852    -0.47170
N445        N  0.61520981  0.24675918  0.53401492    -0.47390
C446        C  0.73977223  0.17319008  0.66024240     0.41920
N447        N  0.67201108  0.25275606  0.62542384     0.00790
N448        N  0.65609907  0.14702555  0.60298822    -0.26090
N449        N  0.65293752  0.19827608  0.69538331    -0.26580
N450        N  0.63787736  0.15116775  0.58176385     0.00430
H451        H  0.69495108  0.12376147  0.60714304     0.06320
H452        H  0.60782338  0.17721889  0.51741845     0.06360
N453        N  0.65370223  0.26278287  0.60603091    -0.26630
N454        N  0.56517899  0.20309394  0.59731140    -0.26240
N455        N  0.69464163  0.17225115  0.64716527     0.00800
C456        C  0.59578092  0.27664477  0.69312903     0.42190
C457        C  0.59319486  0.13777571  0.66710712    -0.07490
N458        N  0.61258496  0.20449139  0.55522052    -0.26240
H459        H  0.52923544  0.17416948  0.59113306     0.06340
N460        N  0.61893661  0.25949629  0.69428177    -0.47460
H461        H  0.60152084  0.13294540  0.68823722     0.06330
C462        C  0.67077214  0.12338231  0.56420991     0.42030
C463        C  0.65861053  0.20019164  0.72413590    -0.06990
Co464      Co  0.65127474  0.15829261  0.64529639     0.73820
N465        N  0.56338088  0.14844024  0.63051585    -0.47180
C466        C  0.69690178  0.28394373  0.60219428     0.42290
N467        N  0.71785954  0.15581492  0.65109300    -0.47170
Co468      Co  0.60172185  0.17691567  0.58891341     0.73890
C469        C  0.61207756  0.19842396  0.52678229    -0.07500
C470        C  0.58784320  0.27792526  0.66244871    -0.07060
N471        N  0.69918759  0.19973920  0.65371090    -0.26590
N472        N  0.54110773  0.24287103  0.60885634    -0.47350
H473        H  0.65814581  0.29624438  0.57391714     0.06300
C474        C  0.67802242  0.13174944  0.59348092    -0.07470
Cl475      Cl  0.63163448  0.20264112  0.62464573    -0.50470
C476        C  0.56356659  0.14039149  0.65805485     0.42060
H477        H  0.73608770  0.22174344  0.67257138     0.06270
N478        N  0.64531680  0.13623550  0.55810872    -0.47180
C479        C  0.84073099  0.23796987  0.67036249     0.41910
N480        N  0.85820179  0.19428162  0.67047853     0.00800
C481        C  0.83785168  0.09596163  0.78286639    -0.07080
H482        H  0.93163206  0.15906898  0.79553505     0.06290
C483        C  0.97174285  0.10888711  0.69634286    -0.07430
Co484      Co  0.84453836  0.16537787  0.72629757     0.74180
N485        N  0.89858400  0.15536246  0.76266708    -0.26610
Co486      Co  0.89681764  0.11159728  0.74928116     0.74070
C487        C  0.98795973  0.11378583  0.72270916     0.42010
N488        N  0.91914246  0.13100694  0.65017288     0.00410
N489        N  0.94136213  0.11310738  0.73230939     0.00520
N490        N  0.80855534  0.12880564  0.76317484    -0.47460
H491        H  0.83009953  0.23585680  0.71885369     0.06280
N492        N  0.88044628  0.17458188  0.75203238     0.00800
N493        N  0.89369957  0.06713616  0.73308371     0.00540
C494        C  0.89104691  0.02017147  0.72452571     0.42150
N495        N  0.89976377  0.15032613  0.64246174    -0.26060
C496        C  0.78061014  0.16511017  0.70109155    -0.06980
N497        N  0.85150447  0.21624631  0.65343926    -0.47170
N498        N  0.88887555  0.04140156  0.74574531    -0.47390
C499        C  0.76837653  0.16224066  0.67167671     0.41920
N500        N  0.83475333  0.13109218  0.75274547     0.00790
N501        N  0.85571981  0.10738190  0.64610647    -0.26090
N502        N  0.85224571  0.19999501  0.69796096    -0.26580
N503        N  0.87552931  0.08836156  0.65320798     0.00430
H504        H  0.81801083  0.10431262  0.61967260     0.06320
H505        H  0.90221326  0.02652468  0.67671600     0.06360
N506        N  0.85285968  0.11180317  0.76329741    -0.26630
N507        N  0.94397418  0.10867221  0.70417972    -0.26240
N508        N  0.81391193  0.15026048  0.67147852     0.00800
C509        C  0.90618490  0.19947253  0.78200312     0.42190
C510        C  0.90888314  0.16280577  0.61828051    -0.07490
N511        N  0.89910875  0.06375946  0.70522840    -0.26240
H512        H  0.97967714  0.10452017  0.67466666     0.06340
N513        N  0.88473294  0.20069124  0.76270311    -0.47460
H514        H  0.89590515  0.17669371  0.60503798     0.06330
C515        C  0.84694691  0.06495639  0.62732776     0.42030
C516        C  0.84112390  0.22702250  0.70001677    -0.06990
Co517      Co  0.85740984  0.15035053  0.65736719     0.73820
N518        N  0.94065963  0.12868140  0.63147509    -0.47180
C519        C  0.80815402  0.10745207  0.78226464     0.42290
N520        N  0.79082170  0.15338829  0.65473398    -0.47170
Co521      Co  0.90948360  0.09823324  0.67813318     0.73890
C522        C  0.89798465  0.03550857  0.69807088    -0.07500
C523        C  0.91544201  0.16912138  0.78236811    -0.07060
N524        N  0.80866256  0.15703363  0.69879972    -0.26590
N525        N  0.96757167  0.11609528  0.74456712    -0.47350
H526        H  0.84659404  0.07898230  0.79599028     0.06300
C527        C  0.83624743  0.09423093  0.62984519    -0.07470
Cl528      Cl  0.87710881  0.13164605  0.70286703    -0.50470
C529        C  0.93562622  0.14792215  0.61076091     0.42060
H530        H  0.77091771  0.17524807  0.72002220     0.06270
N531        N  0.87148786  0.06254507  0.64164102    -0.47180
C532        C  0.63665315  0.16477246  0.94181399     0.41910
N533        N  0.64668364  0.14676691  0.90025789     0.00800
C534        C  0.75317527  0.04200681  0.88271344    -0.07080
H535        H  0.77719499  0.12727405  0.96018163     0.06290
C536        C  0.75593643  0.20338988  0.87501371    -0.07430
Co537      Co  0.68489488  0.09579874  0.90776952     0.74180
N538        N  0.74056109  0.11623165  0.93281751    -0.26610
Co539      Co  0.75228252  0.11418263  0.88746450     0.74070
C540        C  0.77919476  0.20114612  0.89550118     0.42010
N541        N  0.68978429  0.19836199  0.84744867     0.00410
N542        N  0.76140839  0.15885521  0.88722970     0.00520
N543        N  0.70785975  0.03451321  0.89795074    -0.47460
H544        H  0.65833704  0.12822248  0.96578306     0.06280
N545        N  0.71383025  0.10920760  0.93954654     0.00800
N546        N  0.76231706  0.11346794  0.84306472     0.00540
C547        C  0.78316367  0.10589670  0.80192437     0.42150
N548        N  0.66388264  0.18989069  0.85564050    -0.26060
C549        C  0.65366406  0.05574979  0.86718252    -0.06980
N550        N  0.63377329  0.16878810  0.91320722    -0.47170
N551        N  0.78362292  0.09876953  0.83019540    -0.47390
C552        C  0.64240464  0.05778169  0.83860347     0.41920
N553        N  0.71355076  0.06261846  0.89602288     0.00790
N554        N  0.66501688  0.14532551  0.81105885    -0.26090
N555        N  0.65763790  0.12866968  0.91906360    -0.26580
N556        N  0.69118622  0.15325851  0.80310565     0.00430
H557        H  0.62420906  0.14592521  0.78873384     0.06320
H558        H  0.75460243  0.13946735  0.78003965     0.06360
N559        N  0.74009393  0.06832563  0.88742571    -0.26630
N560        N  0.74743478  0.17646978  0.86988279    -0.26240
N561        N  0.64831603  0.10050575  0.85518009     0.00800
C562        C  0.73300475  0.11697303  0.98175569     0.42190
C563        C  0.64593155  0.21295784  0.85540453    -0.07490
N564        N  0.74915831  0.13117153  0.82505778    -0.26240
H565        H  0.74940587  0.22188124  0.86259124     0.06340
N566        N  0.70875530  0.10908759  0.96775845    -0.47460
H567        H  0.62277984  0.21178254  0.85804265     0.06330
C568        C  0.66559368  0.15844751  0.76409089     0.42030
C569        C  0.65157020  0.13796299  0.94591958    -0.06990
Co570      Co  0.65499197  0.14492856  0.85604287     0.73820
N571        N  0.69008228  0.22636623  0.84016152    -0.47180
C572        C  0.73117297  0.01910217  0.88964644     0.42290
N573        N  0.63829752  0.08589140  0.83265947    -0.47170
Co574      Co  0.72030074  0.16470662  0.83643347     0.73890
C575        C  0.75995814  0.12675469  0.79869592    -0.07500
C576        C  0.75463202  0.12167845  0.95824395    -0.07060
N577        N  0.65808835  0.08312010  0.87529936    -0.26590
N578        N  0.78144486  0.17284898  0.90241318    -0.47350
H579        H  0.77543088  0.03904761  0.87627361     0.06300
C580        C  0.64746754  0.14738588  0.78787862    -0.07470
Cl581      Cl  0.70323466  0.12993208  0.87173792    -0.50470
C582        C  0.66330564  0.23773722  0.84547172     0.42060
H583        H  0.65973245  0.03660639  0.87860929     0.06270
N584        N  0.69221815  0.16209730  0.77573659    -0.47180
C585        C  0.76212832  0.32557458  0.82870414     0.41910
N586        N  0.80653334  0.32716188  0.84368197     0.00800
C587        C  0.91395594  0.22200719  0.83497038    -0.07080
H588        H  0.84007167  0.21010166  0.92300080     0.06290
C589        C  0.87900836  0.30019502  0.97042937    -0.07430
Co590      Co  0.84224744  0.27566032  0.83212738     0.74180
N591        N  0.84769792  0.23863848  0.88695223    -0.26610
Co592      Co  0.88997248  0.25381155  0.89182912     0.74070
C593        C  0.88055155  0.27231243  0.98459288     0.42010
N594        N  0.85397426  0.34711399  0.91599887     0.00410
N595        N  0.88238291  0.26665703  0.93710137     0.00520
N596        N  0.88715592  0.24303753  0.80113044    -0.47460
H597        H  0.76775905  0.27743482  0.81481151     0.06280
N598        N  0.83082685  0.24758875  0.86568606     0.00800
N599        N  0.93174186  0.27354431  0.89522664     0.00540
C600        C  0.97780069  0.28432993  0.89673560     0.42150
N601        N  0.83773056  0.34991033  0.89309690    -0.26060
C602        C  0.84876473  0.30470087  0.77034446    -0.06980
N603        N  0.78295202  0.34297181  0.83980844    -0.47170
N604        N  0.95828845  0.26272796  0.89089514    -0.47390
C605        C  0.85006792  0.33497325  0.76034947     0.41920
N606        N  0.88053689  0.25321047  0.82689402     0.00790
N607        N  0.88954729  0.35997845  0.85886186    -0.26090
N608        N  0.80332320  0.29994090  0.83586460    -0.26580
N609        N  0.90416373  0.35345381  0.88229184     0.00430
H610        H  0.89934283  0.38916617  0.82408124     0.06320
H611        H  0.96740528  0.33105488  0.91157935     0.06360
N612        N  0.89650715  0.24206429  0.84762990    -0.26630
N613        N  0.88099804  0.29470678  0.94206651    -0.26240
N614        N  0.85724522  0.33304626  0.80703947     0.00800
C615        C  0.80371086  0.22024380  0.89110640     0.42190
C616        C  0.81464512  0.36465172  0.89979129    -0.07490
N617        N  0.93222195  0.30102215  0.90372383    -0.26240
H618        H  0.88052924  0.32162834  0.98009357     0.06340
N619        N  0.80462489  0.23709058  0.86774017    -0.47460
H620        H  0.80030228  0.37107047  0.88327016     0.06330
C621        C  0.93044437  0.38430822  0.86245729     0.42030
C622        C  0.77599378  0.29664253  0.82566706    -0.06990
Co623      Co  0.84844906  0.34281375  0.85087833     0.73820
N624        N  0.84450489  0.36398320  0.93751873    -0.47180
C625        C  0.90743860  0.22279311  0.80380203     0.42290
N626        N  0.85441803  0.35101594  0.78489469    -0.47170
Co627      Co  0.89263061  0.32434222  0.91139149     0.73890
C628        C  0.96012667  0.30958619  0.90534318    -0.07500
C629        C  0.83235102  0.22066774  0.90386324    -0.07060
N630        N  0.85343031  0.30573766  0.79927089    -0.26590
N631        N  0.88321653  0.25223017  0.96226058    -0.47350
H632        H  0.92830536  0.20774022  0.84625040     0.06300
C633        C  0.90517897  0.37935549  0.84428337    -0.07470
Cl634      Cl  0.86869060  0.29879460  0.87137182    -0.50470
C635        C  0.82032320  0.37747111  0.92781064     0.42060
H636        H  0.84091016  0.28588445  0.75853426     0.06270
N637        N  0.92859527  0.36732974  0.88510691    -0.47180
C638        C  0.27177480  0.17375017  0.67787319     0.41910
N639        N  0.31470387  0.17307071  0.65903231     0.00800
C640        C  0.41817986  0.28242247  0.66932835    -0.07080
H641        H  0.34819114  0.29622606  0.58501045     0.06290
C642        C  0.39303299  0.19707345  0.53713224    -0.07430
Co643      Co  0.34881760  0.22578380  0.67218800     0.74180
N644        N  0.35453772  0.26331509  0.61740927    -0.26610
Co645      Co  0.39766555  0.24829405  0.61305704     0.74070
C646        C  0.38816567  0.22382662  0.52160838     0.42010
N647        N  0.37023949  0.15261077  0.59183212     0.00410
N648        N  0.39161523  0.23249527  0.56853723     0.00520
N649        N  0.39254736  0.25967887  0.70344563    -0.47460
H650        H  0.27724761  0.22163111  0.69176549     0.06280
N651        N  0.33757513  0.25404734  0.63876206     0.00800
N652        N  0.44140312  0.23079881  0.61092345     0.00540
C653        C  0.48778948  0.22131620  0.60765133     0.42150
N654        N  0.35161087  0.14719249  0.61281253    -0.26060
C655        C  0.35091368  0.19768678  0.73469698    -0.06980
N656        N  0.29184639  0.15665902  0.66493348    -0.47170
N657        N  0.46786879  0.24305083  0.61202182    -0.47390
C658        C  0.35118165  0.16740947  0.74492913     0.41920
N659        N  0.38683074  0.24893502  0.67778437     0.00790
N660        N  0.39863733  0.14350822  0.65214421    -0.26090
N661        N  0.31124585  0.20027034  0.66722824    -0.26580
N662        N  0.41735017  0.14997656  0.63147271     0.00430
H663        H  0.40075913  0.11664777  0.68942525     0.06320
H664        H  0.47811650  0.17324581  0.59829441     0.06360
N665        N  0.40240121  0.26100788  0.65695899    -0.26630
N666        N  0.39507879  0.20433896  0.56511395    -0.26240
N667        N  0.36192667  0.16913368  0.69892623     0.00800
C668        C  0.31153979  0.28562349  0.61735531     0.42190
C669        C  0.32955952  0.13250755  0.60220067    -0.07490
N670        N  0.44307126  0.20267744  0.60580838    -0.26240
H671        H  0.39627859  0.17542188  0.52853568     0.06340
N672        N  0.31221886  0.26666343  0.63902764    -0.47460
H673        H  0.31161472  0.12392162  0.61447715     0.06330
C674        C  0.43944082  0.12203902  0.65893691     0.42030
C675        C  0.28475341  0.20293955  0.67952958    -0.06990
Co676      Co  0.35707803  0.15796769  0.65516392     0.73820
N677        N  0.36256726  0.14087351  0.56687155    -0.47180
C678        C  0.41085066  0.28187809  0.70036467     0.42290
N679        N  0.35749148  0.15129956  0.72094697    -0.47170
Co680      Co  0.40660565  0.17700502  0.59849459     0.73890
C681        C  0.47077113  0.19490229  0.60354210    -0.07500
C682        C  0.33983256  0.28373312  0.60280950    -0.07060
N683        N  0.35797947  0.19650097  0.70612195    -0.26590
N684        N  0.38778982  0.24534154  0.54274795    -0.47350
H685        H  0.43161599  0.29766055  0.65784295     0.06300
C686        C  0.41086348  0.12591898  0.67053816    -0.07470
Cl687      Cl  0.37749831  0.20270543  0.63460177    -0.50470
C688        C  0.33681320  0.12877233  0.57214303     0.42060
H689        H  0.34212087  0.21649847  0.74580388     0.06270
N690        N  0.44244861  0.13691368  0.63444052    -0.47180
C691        C  0.13010865  0.32345056  0.57011371     0.41910
N692        N  0.15208136  0.34614340  0.60373705     0.00800
C693        C  0.24740185  0.46177617  0.61110999    -0.07080
H694        H  0.27733017  0.38165909  0.53648241     0.06290
C695        C  0.26464301  0.30524372  0.63768408    -0.07430
Co696      Co  0.18216402  0.40080126  0.58869707     0.74180
N697        N  0.23969020  0.38433444  0.56493536    -0.26610
Co698      Co  0.25123488  0.39049773  0.61090094     0.74070
C699        C  0.28728615  0.30617201  0.61603128     0.42010
N700        N  0.19538420  0.30722499  0.66129300     0.00410
N701        N  0.26429135  0.34671544  0.61650350     0.00520
N702        N  0.20173796  0.46623272  0.59624819    -0.47460
H703        H  0.13988904  0.36042915  0.53791866     0.06280
N704        N  0.21223462  0.38730143  0.55834180     0.00800
N705        N  0.26042956  0.39648921  0.65563067     0.00540
C706        C  0.27923329  0.40894029  0.69670647     0.42150
N707        N  0.16914917  0.31258124  0.65254110    -0.26060
C708        C  0.13795454  0.43847238  0.61542357    -0.06980
N709        N  0.13867858  0.32221277  0.59726428    -0.47170
N710        N  0.28139188  0.41234052  0.66757662    -0.47390
C711        C  0.11635555  0.43556636  0.63723586     0.41920
N712        N  0.20879057  0.43826298  0.59831459     0.00790
N713        N  0.16371983  0.36290079  0.69051428    -0.26090
N714        N  0.15633610  0.36338432  0.58169635    -0.26580
N715        N  0.18974456  0.35742795  0.70019232     0.00430
H716        H  0.12168418  0.36144539  0.71091164     0.06320
H717        H  0.24797726  0.37971486  0.72123668     0.06360
N718        N  0.23558645  0.43472135  0.60713991    -0.26630
N719        N  0.25216130  0.33102826  0.63727931    -0.26240
N720        N  0.14232592  0.39786271  0.63833127     0.00800
C721        C  0.23195012  0.38438300  0.51543106     0.42190
C722        C  0.15333628  0.28797691  0.65383127    -0.07490
N723        N  0.24613865  0.38165321  0.67545890    -0.26240
H724        H  0.26009891  0.28869837  0.65339987     0.06340
N725        N  0.20704854  0.38766972  0.53016740    -0.47460
H726        H  0.13041400  0.28643596  0.64995468     0.06330
C727        C  0.16188001  0.35524366  0.73889732     0.42030
C728        C  0.14175578  0.35134226  0.55923264    -0.06990
Co729      Co  0.15652100  0.35578467  0.64593147     0.73820
N730        N  0.19815509  0.27988882  0.67013866    -0.47180
C731        C  0.22469558  0.48333912  0.60381495     0.42290
N732        N  0.12027907  0.41043865  0.65123121    -0.47170
Co733      Co  0.22172382  0.34456545  0.66847184     0.73890
C734        C  0.25448020  0.39026220  0.70147493    -0.07500
C735        C  0.25414301  0.38216719  0.53892816    -0.07060
N736        N  0.15259194  0.41398045  0.61728262    -0.26590
N737        N  0.28632671  0.33275709  0.60383887    -0.47350
H738        H  0.26924075  0.46603549  0.61804758     0.06300
C739        C  0.14487210  0.36215842  0.71304847    -0.07470
Cl740      Cl  0.20309050  0.37303866  0.62867293    -0.50470
C741        C  0.17259612  0.26580907  0.66517313     0.42060
H742        H  0.14110956  0.45514556  0.59954219     0.06270
N743        N  0.18937631  0.35178354  0.72855796    -0.47180
C744        C  0.33661871  0.26396518  0.82471815     0.41910
N745        N  0.34782837  0.30961872  0.82381031     0.00800
C746        C  0.33372764  0.41319578  0.71642394    -0.07080
H747        H  0.43028680  0.34714488  0.70785360     0.06290
C748        C  0.46507132  0.39381683  0.79927568    -0.07430
Co749      Co  0.33608327  0.33947676  0.76878096     0.74180
N750        N  0.39182333  0.35077137  0.73463831    -0.26610
Co751      Co  0.39011255  0.39390557  0.74890045     0.74070
C752        C  0.48008510  0.38845101  0.77184239     0.42010
N753        N  0.41032080  0.36861224  0.84425768     0.00410
N754        N  0.43357443  0.39101688  0.76494076     0.00520
N755        N  0.30243140  0.37965731  0.73259690    -0.47460
H756        H  0.32585533  0.26442194  0.77590251     0.06280
N757        N  0.37281253  0.33129953  0.74370811     0.00800
N758        N  0.38786631  0.43743779  0.76703634     0.00540
C759        C  0.38677735  0.48370785  0.77740713     0.42150
N760        N  0.38952793  0.34970453  0.84932182    -0.26060
C761        C  0.27231543  0.33636028  0.79428056    -0.06980
N762        N  0.34415069  0.28714571  0.84109270    -0.47170
N763        N  0.38460316  0.46367243  0.75522175    -0.47390
C764        C  0.26000275  0.33778717  0.82386014     0.41920
N765        N  0.32806281  0.37544336  0.74335059     0.00790
N766        N  0.34733426  0.39474217  0.85193975    -0.26090
N767        N  0.34274049  0.30348634  0.79643791    -0.26580
N768        N  0.36787539  0.41406793  0.84757018     0.00430
H769        H  0.30983751  0.39390048  0.87857081     0.06320
H770        H  0.39607168  0.47511418  0.82520656     0.06360
N771        N  0.34712624  0.39507550  0.73468917    -0.26630
N772        N  0.43690966  0.39495440  0.79301194    -0.26240
N773        N  0.30433379  0.35388839  0.82375374     0.00800
C774        C  0.40347136  0.30662464  0.71879802     0.42190
C775        C  0.40091412  0.32554788  0.85839552    -0.07490
N776        N  0.39250877  0.43965715  0.79511305    -0.26240
H777        H  0.47416003  0.39731159  0.82053534     0.06340
N778        N  0.37927949  0.30503820  0.73486078    -0.47460
H779        H  0.38960074  0.30588695  0.86377073     0.06330
C780        C  0.33866274  0.43450369  0.87663385     0.42030
C781        C  0.33498464  0.27505361  0.79475440    -0.06990
Co782      Co  0.34754183  0.35278209  0.83772833     0.73820
N783        N  0.43615290  0.35856685  0.85053410    -0.47180
C784        C  0.30378747  0.40288012  0.71553974     0.42290
N785        N  0.28145454  0.34882640  0.84059015    -0.47170
Co786      Co  0.40212985  0.40457371  0.82062419     0.73890
C787        C  0.39199266  0.46737282  0.80342962    -0.07500
C788        C  0.41178474  0.33713641  0.71801443    -0.07060
N789        N  0.29966923  0.34681934  0.79637846    -0.26590
N790        N  0.45899233  0.38719709  0.75123626    -0.47350
H791        H  0.34366642  0.43113376  0.70532544     0.06300
C792        C  0.32800428  0.40569541  0.86976728    -0.07470
Cl793      Cl  0.36867028  0.37276896  0.79387667    -0.50470
C794        C  0.43122019  0.33105002  0.85809493     0.42060
H795        H  0.26360833  0.32522652  0.77550163     0.06270
N796        N  0.36401041  0.43830306  0.86288855    -0.47180
C797        C  0.17152799  0.35972907  0.94445939     0.41910
N798        N  0.15210120  0.34349251  0.90575137     0.00800
C799        C  0.03111122  0.25938651  0.88664474    -0.07080
H800        H  0.11353057  0.22145252  0.95845989     0.06290
C801        C  0.18748623  0.23649821  0.86360564    -0.07430
Co802      Co  0.09328142  0.32018402  0.91330971     0.74180
N803        N  0.10638127  0.26020518  0.93310038    -0.26610
Co804      Co  0.10142900  0.25143637  0.88685950     0.74070
C805        C  0.18542110  0.21565903  0.88646459     0.42010
N806        N  0.19053800  0.30359077  0.84122192     0.00410
N807        N  0.14446604  0.23650018  0.88193485     0.00520
N808        N  0.02837399  0.30549042  0.90305483    -0.47460
H809        H  0.13002596  0.35070382  0.97094456     0.06280
N810        N  0.10239839  0.28724771  0.94163658     0.00800
N811        N  0.09700190  0.24428025  0.84180972     0.00540
C812        C  0.08626107  0.22595929  0.79990696     0.42150
N813        N  0.18710138  0.32834543  0.85501527    -0.26060
C814        C  0.06608869  0.37542781  0.89000682    -0.06980
N815        N  0.17632400  0.35232953  0.91675949    -0.47170
N816        N  0.08112809  0.22393293  0.82876682    -0.47390
C817        C  0.07872829  0.40008029  0.87513577     0.41920
N818        N  0.05575790  0.29715757  0.89997842     0.00790
N819        N  0.14078470  0.34107401  0.81622192    -0.26090
N820        N  0.13155738  0.34035358  0.92520172    -0.26580
N821        N  0.14251634  0.31499665  0.80409376     0.00430
H822        H  0.14902277  0.38371465  0.79917007     0.06320
H823        H  0.11804540  0.25624806  0.77730654     0.06360
N824        N  0.05833548  0.27003173  0.89053417    -0.26630
N825        N  0.16152908  0.24805271  0.86186526    -0.26240
N826        N  0.10710456  0.36390004  0.87028329     0.00800
C827        C  0.10889412  0.26586686  0.98273670     0.42190
C828        C  0.21161834  0.34397422  0.85362232    -0.07490
N829        N  0.11336952  0.25830707  0.82301491    -0.26240
H830        H  0.20568720  0.24186644  0.84991848     0.06340
N831        N  0.10364487  0.29130195  0.97003047    -0.47460
H832        H  0.21351349  0.36661751  0.85973947     0.06330
C833        C  0.15029379  0.34429636  0.76791569     0.42030
C834        C  0.14178868  0.35013310  0.95066123    -0.06990
Co835      Co  0.14597849  0.34427450  0.86230646     0.73820
N836        N  0.21650952  0.30215967  0.82829310    -0.47180
C837        C  0.01085193  0.28313471  0.89500305     0.42290
N838        N  0.10403030  0.39111840  0.86400209    -0.47170
Co839      Co  0.15150210  0.28026833  0.83240126     0.73890
C840        C  0.10598415  0.25029293  0.79645888    -0.07500
C841        C  0.11068046  0.24466292  0.95777068    -0.07060
N842        N  0.08596063  0.35444238  0.88689421    -0.26590
N843        N  0.15800177  0.21619309  0.89691455    -0.47350
H844        H  0.02594233  0.23748972  0.87974372     0.06300
C845        C  0.14516455  0.36089208  0.79520446    -0.07470
Cl846      Cl  0.12261848  0.29900572  0.87322668    -0.50470
C847        C  0.23143630  0.32682724  0.83577410     0.42060
H848        H  0.04801876  0.37519128  0.90491086     0.06270
N849        N  0.14894660  0.31602475  0.77584724    -0.47180
C850        C  0.24368621  0.16254095  0.68969276     0.41910
N851        N  0.19972855  0.14689287  0.68761556     0.00800
C852        C  0.08400546  0.17012853  0.78261500    -0.07080
H853        H  0.15302300  0.07511866  0.80157933     0.06290
C854        C  0.11107087  0.03280279  0.70902527    -0.07430
Co855      Co  0.16183882  0.16542292  0.73648675     0.74180
N856        N  0.14941491  0.11209829  0.77339360    -0.26610
Co857      Co  0.10765677  0.11125093  0.75573207     0.74070
C858        C  0.11228908  0.01867333  0.73680489     0.42010
N859        N  0.14405622  0.08136980  0.66545814     0.00410
N860        N  0.11160274  0.06597298  0.74273526     0.00520
N861        N  0.11692941  0.20128865  0.76522916    -0.47460
H862        H  0.23540628  0.18181693  0.73550023     0.06280
N863        N  0.16847907  0.13201231  0.76529583     0.00800
N864        N  0.06654351  0.11182070  0.73438214     0.00540
C865        C  0.02092055  0.11284809  0.72289604     0.42150
N866        N  0.16467954  0.10061342  0.66131897    -0.26060
C867        C  0.16139123  0.22662802  0.70642916    -0.06980
N868        N  0.22406153  0.14944666  0.67260147    -0.47170
N869        N  0.03988392  0.11605181  0.74522455    -0.47390
C870        C  0.16368165  0.23622601  0.67625288     0.41920
N871        N  0.12317399  0.17468165  0.75729457     0.00790
N872        N  0.12260036  0.14104113  0.64611154    -0.26090
N873        N  0.20135535  0.15748519  0.71407964    -0.26580
N874        N  0.10114133  0.12303401  0.65164572     0.00430
H875        H  0.13679366  0.16278375  0.60802073     0.06320
H876        H  0.03209164  0.10060607  0.67547728     0.06360
N877        N  0.10400813  0.15559639  0.76667229    -0.26630
N878        N  0.11048546  0.06120255  0.71464455    -0.26240
N879        N  0.15525184  0.18962558  0.67747810     0.00800
C880        C  0.19248839  0.10446948  0.79292257     0.42190
C881        C  0.18735294  0.08744654  0.64989122    -0.07490
N882        N  0.06639817  0.10576814  0.70626740    -0.26240
H883        H  0.10932046  0.02302394  0.68767958     0.06340
N884        N  0.19401981  0.12791633  0.77631641    -0.47460
H885        H  0.20642923  0.09856738  0.64226053     0.06330
C886        C  0.09555795  0.13582875  0.60782990     0.42030
C887        C  0.22841841  0.16836214  0.71748817    -0.06990
Co888      Co  0.16000188  0.14431898  0.66813639     0.73820
N889        N  0.15117874  0.05537195  0.65552521    -0.47180
C890        C  0.09265280  0.20073957  0.78115713     0.42290
N891        N  0.15992834  0.21177647  0.65972982    -0.47170
Co892      Co  0.10505058  0.09306484  0.68417990     0.73890
C893        C  0.03890577  0.10605758  0.69722008    -0.07500
C894        C  0.16266449  0.09389290  0.79164517    -0.07060
N895        N  0.15616997  0.19775780  0.70499678    -0.26590
N896        N  0.11209698  0.04079378  0.75721677    -0.47350
H897        H  0.06575913  0.16053496  0.79361112     0.06300
C898        C  0.12077613  0.14995370  0.61918473    -0.07470
Cl899      Cl  0.13332689  0.12885147  0.71110872    -0.50470
C900        C  0.17815492  0.05765337  0.64454387     0.42060
H901        H  0.16666129  0.23870128  0.72594251     0.06270
N902        N  0.08378548  0.11991769  0.62919652    -0.47180
C903        C  0.32587243  0.23606632  0.83764806     0.41910
N904        N  0.32670256  0.19348826  0.85719625     0.00800
C905        C  0.21622928  0.09013785  0.84178897    -0.07080
H906        H  0.19508627  0.15769292  0.92107413     0.06290
C907        C  0.29620898  0.11617966  0.97514606    -0.07430
Co908      Co  0.27471609  0.15825093  0.84160930     0.74180
N909        N  0.23316746  0.15307669  0.89383302    -0.26610
Co910      Co  0.24842360  0.11029825  0.89813488     0.74070
C911        C  0.26946719  0.11627866  0.99103720     0.42010
N912        N  0.34253959  0.13952264  0.92606344     0.00410
N913        N  0.26126899  0.11592593  0.94393208     0.00520
N914        N  0.23951665  0.11607696  0.80826559    -0.47460
H915        H  0.27925650  0.22873808  0.82248810     0.06280
N916        N  0.24429929  0.17004589  0.87354699     0.00800
N917        N  0.26634725  0.06729961  0.89897717     0.00540
C918        C  0.27710717  0.02107578  0.89624488     0.42150
N919        N  0.35151563  0.15766958  0.90603717    -0.26060
C920        C  0.30723530  0.15461120  0.78126351    -0.06980
N921        N  0.34274263  0.21672993  0.85132492    -0.47170
N922        N  0.25541301  0.04084230  0.89273737    -0.47390
C923        C  0.33786219  0.15502573  0.77224115     0.41920
N924        N  0.25081704  0.12063990  0.83384686     0.00790
N925        N  0.35905148  0.10957168  0.86799267    -0.26090
N926        N  0.29996297  0.19604047  0.84806744    -0.26580
N927        N  0.34812643  0.09246456  0.88790096     0.00430
H928        H  0.39858879  0.10676832  0.84319164     0.06320
H929        H  0.32369420  0.03089498  0.90990623     0.06360
N930        N  0.23796608  0.10520852  0.85420031    -0.26630
N931        N  0.28925876  0.11517199  0.94739053    -0.26240
N932        N  0.33382314  0.14497495  0.81815295     0.00800
C933        C  0.20860077  0.19460894  0.89057973     0.42190
C934        C  0.37594160  0.16994143  0.91495686    -0.07490
N935        N  0.29376026  0.06611912  0.90603039    -0.26240
H936        H  0.31784893  0.11336141  0.98305351     0.06340
N937        N  0.23048859  0.19463909  0.87151776    -0.47460
H938        H  0.39045848  0.18146744  0.90073745     0.06330
C939        C  0.38642482  0.07153935  0.87599341     0.42030
C940        C  0.29735904  0.22215096  0.83539746    -0.06990
Co941      Co  0.34280228  0.15123141  0.86259293     0.73820
N942        N  0.36099195  0.13739083  0.94733245    -0.47180
C943        C  0.21703971  0.09793909  0.81116399     0.42290
N944        N  0.35270110  0.14942070  0.79671635    -0.47170
Co945      Co  0.31801251  0.10374148  0.91638175     0.73890
C946        C  0.30223904  0.03832174  0.90506279    -0.07500
C947        C  0.21004405  0.16682703  0.90563324    -0.07060
N948        N  0.30686150  0.14820047  0.80981646    -0.26590
N949        N  0.24804560  0.11564277  0.97016474    -0.47350
H950        H  0.20024506  0.07754948  0.85325126     0.06300
C951        C  0.38346417  0.09736478  0.85830780    -0.07470
Cl952      Cl  0.29592371  0.13109240  0.87953243    -0.50470
C953        C  0.38374691  0.15388633  0.94070461     0.42060
H954        H  0.28898749  0.16271691  0.76947407     0.06270
N955        N  0.36357647  0.06956293  0.89301400    -0.47180
C956        C  0.55759852  0.88361932  0.64395617     0.41910
N957        N  0.59029823  0.85125759  0.64958175     0.00800
C958        C  0.61191887  0.74217196  0.54337791    -0.07080
H959        H  0.53332187  0.71366804  0.62341884     0.06290
C960        C  0.61948251  0.74152079  0.70380598    -0.07430
Co961      Co  0.58345325  0.80906690  0.59948015     0.74180
N962        N  0.56053072  0.75186480  0.61759007    -0.26610
Co963      Co  0.60640227  0.74221065  0.61516317     0.74070
C964        C  0.59800739  0.71854414  0.70230437     0.42010
N965        N  0.64675711  0.80673719  0.69932267     0.00410
N966        N  0.60771645  0.73331184  0.65948450     0.00520
N967        N  0.59561687  0.78722977  0.53745296    -0.47460
H968        H  0.53596628  0.85617763  0.60850192     0.06280
N969        N  0.55348977  0.77901219  0.61312736     0.00800
N970        N  0.65121529  0.73495574  0.61370495     0.00540
C971        C  0.69406039  0.72004931  0.60347528     0.42150
N972        N  0.63743691  0.83264800  0.69240461    -0.26060
C973        C  0.61081917  0.85053903  0.56099291    -0.06980
N974        N  0.58210258  0.87738829  0.65791437    -0.47170
N975        N  0.66570029  0.71549530  0.59781090    -0.47390
C976        C  0.63054054  0.87375958  0.56421873     0.41920
N977        N  0.59614903  0.78070916  0.56533124     0.00790
N978        N  0.67975187  0.83461383  0.64606334    -0.26090
N979        N  0.57189953  0.83939177  0.63095893    -0.26580
N980        N  0.68909788  0.80887990  0.65349553     0.00430
H981        H  0.70068649  0.87662236  0.64563764     0.06320
H982        H  0.71392872  0.75298226  0.63536296     0.06360
N983        N  0.60567743  0.75440705  0.57002007    -0.26630
N984        N  0.62517488  0.74833989  0.67674212    -0.26240
N985        N  0.63104379  0.85126033  0.60353674     0.00800
C986        C  0.51140616  0.75843339  0.61726335     0.42190
C987        C  0.63928428  0.85012133  0.71623575    -0.07490
N988        N  0.66860116  0.75046015  0.63054434    -0.26240
H989        H  0.63079253  0.75055534  0.72219615     0.06340
N990        N  0.52543552  0.78354903  0.61265868    -0.47460
H991        H  0.63636796  0.87335216  0.71636016     0.06330
C992        C  0.72758847  0.83655221  0.65691494     0.42030
C993        C  0.55038100  0.85800522  0.62664805    -0.06990
Co994      Co  0.63425783  0.84253499  0.64756578     0.73820
N995        N  0.65629990  0.80588232  0.72653018    -0.47180
C996        C  0.60503164  0.76446593  0.52115432     0.42290
N997        N  0.64308015  0.87325250  0.59047653    -0.47170
Co998      Co  0.65733375  0.77760009  0.66490009     0.73890
C999        C  0.69557387  0.74398365  0.62409248    -0.07500
C1000       C  0.53512827  0.73680862  0.62061448    -0.07060
N1001       N  0.61206964  0.83813373  0.58653191    -0.26590
N1002       N  0.59170289  0.71434848  0.67395903    -0.47350
H1003       H  0.62018218  0.72053300  0.53981245     0.06300
C1004       C  0.70242461  0.85334609  0.64710515    -0.07470
Cl1005     Cl  0.62039382  0.79292312  0.63197466    -0.50470
C1006       C  0.65185432  0.83229205  0.73923766     0.42060
H1007       H  0.59582086  0.84555803  0.54381166     0.06270
N1008       N  0.71695018  0.80932524  0.66096288    -0.47180
C1009       C  0.85921353  0.66550986  0.55989973     0.41910
N1010       N  0.84714458  0.64775177  0.59990699     0.00800
C1011       C  0.74640420  0.53969419  0.61490419    -0.07080
H1012       H  0.72061448  0.62383189  0.53573714     0.06290
C1013       C  0.73835010  0.69951843  0.62687068    -0.07430
Co1014     Co  0.81223774  0.59535206  0.58955519     0.74180
N1015       N  0.75641992  0.61380929  0.56418430    -0.26610
Co1016     Co  0.74416360  0.61117600  0.60984098     0.74070
C1017       C  0.71638069  0.69767207  0.60475613     0.42010
N1018       N  0.80328602  0.69634895  0.65430662     0.00410
N1019       N  0.73351244  0.65531166  0.61205866     0.00520
N1020       N  0.79221770  0.53405141  0.60000733    -0.47460
H1021       H  0.84119618  0.62746123  0.53358014     0.06280
N1022       N  0.78346834  0.60762934  0.55791164     0.00800
N1023       N  0.73489496  0.60953209  0.65444875     0.00540
C1024       C  0.72014362  0.59759506  0.69687655     0.42150
N1025       N  0.82957844  0.68927919  0.64608022    -0.26060
C1026       C  0.84918471  0.55674077  0.62447224    -0.06980
N1027       N  0.85975816  0.67018755  0.58850843    -0.47170
N1028       N  0.71595967  0.59280659  0.66812488    -0.47390
C1029       C  0.86462428  0.55892344  0.65087509     0.41920
N1030       N  0.78482797  0.56166866  0.60051697     0.00790
N1031       N  0.83126697  0.64386783  0.68799387    -0.26090
N1032       N  0.83804265  0.62903988  0.58012880    -0.26580
N1033       N  0.80517948  0.65143962  0.69649358     0.00430
H1034       H  0.87261361  0.64607122  0.70915040     0.06320
H1035       H  0.75295819  0.62821444  0.71839385     0.06360
N1036       N  0.75804863  0.56628191  0.60900188    -0.26630
N1037       N  0.74683270  0.67266469  0.63086455    -0.26240
N1038       N  0.85008116  0.60086346  0.64127319     0.00800
C1039       C  0.76576481  0.61486249  0.51514708     0.42190
C1040       C  0.84646047  0.71318629  0.64773379    -0.07490
N1041       N  0.74964048  0.62602377  0.67281586    -0.26240
H1042       H  0.74548182  0.71777752  0.63987112     0.06340
N1043       N  0.78955181  0.60773999  0.52985520    -0.47460
H1044       H  0.86964897  0.71338168  0.64519433     0.06330
C1045       C  0.83173042  0.65809173  0.73489174     0.42030
C1046       C  0.84561189  0.63811100  0.55405379    -0.06990
Co1047     Co  0.84038436  0.64475607  0.64334966     0.73820
N1048       N  0.80147106  0.72397797  0.66322455    -0.47180
C1049       C  0.76970968  0.51804200  0.60888968     0.42290
N1050       N  0.86551558  0.58666862  0.66020384    -0.47170
Co1051     Co  0.77512591  0.66147695  0.66355292     0.73890
C1052       C  0.74394088  0.61786468  0.69938685    -0.07500
C1053       C  0.74320084  0.61888360  0.53830676    -0.07060
N1054       N  0.84010486  0.58352974  0.62056516    -0.26590
N1055       N  0.71411660  0.66941252  0.59657509    -0.47350
H1056       H  0.72463173  0.53587351  0.62246459     0.06300
C1057       C  0.84935503  0.64669380  0.71070029    -0.07470
Cl1058     Cl  0.79287056  0.62826355  0.62671357    -0.50470
C1059       C  0.82780690  0.73644845  0.65920752     0.42060
H1060       H  0.84479242  0.53794937  0.61098478     0.06270
N1061       N  0.80472107  0.66094518  0.72399119    -0.47180
C1062       C  0.66734879  0.56583210  0.87743779     0.41910
N1063       N  0.65531627  0.59537413  0.84466286     0.00800
C1064       C  0.54015388  0.61154650  0.74969673    -0.07080
H1065       H  0.61692796  0.53812014  0.71371978     0.06290
C1066       C  0.69876738  0.62434754  0.73994178    -0.07430
Co1067     Co  0.59949638  0.58426911  0.81410799     0.74180
N1068       N  0.61450237  0.56309152  0.75411764    -0.26610
Co1069     Co  0.61089864  0.60895706  0.74577666     0.74070
C1070       C  0.69700276  0.60126695  0.71832967     0.42010
N1071       N  0.69809608  0.65364430  0.80386937     0.00410
N1072       N  0.65456073  0.61158825  0.73386011     0.00520
N1073       N  0.53450253  0.59495925  0.79468890    -0.47460
H1074       H  0.62611835  0.53831641  0.86868061     0.06280
N1075       N  0.61165605  0.55474420  0.78115780     0.00800
N1076       N  0.60824993  0.65397702  0.73911931     0.00540
C1077       C  0.59692593  0.69666261  0.72497719     0.42150
N1078       N  0.69163994  0.64360300  0.82944750    -0.26060
C1079       C  0.56439751  0.61234612  0.86019126    -0.06980
N1080       N  0.67491856  0.58945197  0.86353497    -0.47170
N1081       N  0.59151881  0.66795440  0.72072785    -0.47390
C1082       C  0.56840952  0.63493384  0.88133409     0.41920
N1083       N  0.56259100  0.59652019  0.78779734     0.00790
N1084       N  0.64457960  0.68402551  0.83568409    -0.26090
N1085       N  0.63528659  0.57521049  0.84155394    -0.26580
N1086       N  0.65078544  0.69385582  0.80974926     0.00430
H1087       H  0.64740414  0.70412212  0.87820350     0.06320
H1088       H  0.62962660  0.71766851  0.75594605     0.06360
N1089       N  0.56673656  0.60641129  0.76138475    -0.26630
N1090       N  0.67198121  0.63009307  0.74748060    -0.26240
N1091       N  0.60641425  0.63255158  0.85570776     0.00800
C1092       C  0.61382153  0.51352207  0.75705294     0.42190
C1093       C  0.71506142  0.64508596  0.84652186    -0.07490
N1094       N  0.62539195  0.67207168  0.75346085    -0.26240
H1095       H  0.71715564  0.63611382  0.74824483     0.06340
N1096       N  0.61085014  0.52619768  0.78356837    -0.47460
H1097       H  0.71493199  0.64149372  0.86956368     0.06330
C1098       C  0.65623976  0.73186423  0.83812110     0.42030
C1099       C  0.64054412  0.55565820  0.86256575    -0.06990
Co1100     Co  0.64848485  0.63845502  0.84140165     0.73820
N1101       N  0.72523094  0.66387006  0.80300492    -0.47180
C1102       C  0.51799476  0.60388132  0.77201257     0.42290
N1103       N  0.59478678  0.64665681  0.87765452    -0.47170
Co1104     Co  0.66141471  0.66239851  0.77743636     0.73890
C1105       C  0.61817121  0.69891955  0.74770113    -0.07500
C1106       C  0.61619017  0.53853468  0.73710941    -0.07060
N1107       N  0.58874244  0.61258106  0.84522220    -0.26590
N1108       N  0.66876057  0.59444394  0.71525096    -0.47350
H1109       H  0.53656075  0.61933099  0.72809042     0.06300
C1110       C  0.64695440  0.70640651  0.85496804    -0.07470
Cl1111     Cl  0.62985489  0.62371570  0.79464584    -0.50470
C1112       C  0.73782638  0.65830705  0.82910216     0.42060
H1113       H  0.54618769  0.59808253  0.85651540     0.06270
N1114       N  0.65864140  0.72176675  0.81038551    -0.47180
C1115       C  0.92932074  0.83810624  0.62364617     0.41910
N1116       N  0.89246839  0.85411425  0.64628621     0.00800
C1117       C  0.88279313  0.96536873  0.74832383    -0.07080
H1118       H  0.95835419  0.88350849  0.77387407     0.06290
C1119       C  0.86932842  0.80590882  0.75741470    -0.07430
Co1120     Co  0.90407100  0.90754849  0.68023174     0.74180
N1121       N  0.93025336  0.89113388  0.73717945    -0.26610
Co1122     Co  0.88482143  0.89408975  0.75038216     0.74070
C1123       C  0.89229104  0.80817868  0.77847590     0.42010
N1124       N  0.83994417  0.80728677  0.69334284     0.00410
N1125       N  0.88340672  0.85023698  0.76168874     0.00520
N1126       N  0.89497800  0.97060207  0.70155803    -0.47460
H1127       H  0.95776608  0.87598777  0.64013079     0.06280
N1128       N  0.93654783  0.89604497  0.70978255     0.00800
N1129       N  0.83992397  0.89555646  0.76159132     0.00540
C1130       C  0.79777562  0.90353644  0.78053468     0.42150
N1131       N  0.84783531  0.81403080  0.66696991    -0.26060
C1132       C  0.87645644  0.93651444  0.62828294    -0.06980
N1133       N  0.90136239  0.83347075  0.62884512    -0.47170
N1134       N  0.82642109  0.91010778  0.78290584    -0.47390
C1135       C  0.85376152  0.92852730  0.60804911     0.41920
N1136       N  0.89286453  0.94274591  0.70809759     0.00790
N1137       N  0.80478893  0.85957968  0.66590566    -0.26090
N1138       N  0.91318510  0.87242501  0.65364954    -0.26580
N1139       N  0.79683502  0.85260557  0.69224352     0.00430
H1140       H  0.78225362  0.85839924  0.62508305     0.06320
H1141       H  0.77660805  0.87198207  0.74834752     0.06360
N1142       N  0.88572963  0.93856567  0.73549620    -0.26630
N1143       N  0.86448340  0.83257608  0.74906488    -0.26240
N1144       N  0.85088202  0.90086066  0.64438119     0.00800
C1145       C  0.97951499  0.89021584  0.72866683     0.42190
C1146       C  0.84718713  0.78992800  0.65004438    -0.07490
N1147       N  0.82163389  0.87846862  0.74744355    -0.26240
H1148       H  0.85654853  0.78748288  0.75059253     0.06340
N1149       N  0.96478766  0.89587849  0.70413986    -0.47460
H1150       H  0.84987072  0.78948720  0.62678205     0.06330
C1151       C  0.75716485  0.84788353  0.66679601     0.42030
C1152       C  0.93745403  0.86441381  0.63974868    -0.06990
Co1153     Co  0.84944455  0.85798449  0.65588502     0.73820
N1154       N  0.83211776  0.77944698  0.69520528    -0.47180
C1155       C  0.88899618  0.98705654  0.72542202     0.42290
N1156       N  0.83821907  0.90752190  0.62023627    -0.47170
Co1157     Co  0.83086089  0.84294447  0.72152617     0.73890
C1158       C  0.79508990  0.88407062  0.75593472    -0.07500
C1159       C  0.95602648  0.88707444  0.75094884    -0.07060
N1160       N  0.87314260  0.91797675  0.65015866    -0.26590
N1161       N  0.89997861  0.83650207  0.78045490    -0.48430
H1162       H  0.87807666  0.96932470  0.77098647     0.06300
C1163       C  0.78143481  0.85769231  0.64844742    -0.07470
Cl1164     Cl  0.86717528  0.87576917  0.70212529    -0.50470
C1165       C  0.83679197  0.76667838  0.66874921     0.42060
H1166       H  0.89518416  0.95006201  0.62476308     0.06270
N1167       N  0.76906637  0.84451740  0.69349794    -0.47180
C1168       C  0.86398915  0.62479916  0.93529722     0.41910
N1169       N  0.86192366  0.65102351  0.89823504     0.00800
C1170       C  0.96135719  0.76420238  0.88327549    -0.07080
H1171       H  0.87483130  0.78037670  0.96262077     0.06290
C1172       C  0.80033854  0.76004042  0.87875597    -0.07430
Co1173     Co  0.91101607  0.69230715  0.90284334     0.74180
N1174       N  0.88946129  0.74651870  0.93261059    -0.26610
Co1175     Co  0.88942260  0.76016904  0.88772150     0.74070
C1176       C  0.80204569  0.78313999  0.90033224     0.42010
N1177       N  0.80476566  0.69623747  0.84814912     0.00410
N1178       N  0.84476054  0.76848379  0.88914051     0.00520
N1179       N  0.96980818  0.71748580  0.89175892    -0.47460
H1180       H  0.90022069  0.65099591  0.95604119     0.06280
N1181       N  0.89813186  0.71980920  0.93733780     0.00800
N1182       N  0.88800521  0.76969967  0.84312793     0.00540
C1183       C  0.89567197  0.78558630  0.80018429     0.42150
N1184       N  0.81304407  0.67029583  0.85626425    -0.26060
C1185       C  0.94695237  0.65561695  0.85797701    -0.06980
N1186       N  0.85048169  0.62778740  0.90979112    -0.47170
N1187       N  0.90263214  0.78968318  0.82850153    -0.47390
C1188       C  0.93965649  0.64075480  0.83077020     0.41920
N1189       N  0.94181689  0.72253241  0.89062532     0.00790
N1190       N  0.85533876  0.67104310  0.81059511    -0.26090
N1191       N  0.88197801  0.66249402  0.91513408    -0.26580
N1192       N  0.84710960  0.69690805  0.80276678     0.00430
H1193       H  0.85641224  0.62948173  0.78841687     0.06320
H1194       H  0.86410201  0.75237377  0.78071313     0.06360
N1195       N  0.93541740  0.74974993  0.88577001    -0.26630
N1196       N  0.82718024  0.75363673  0.87191432    -0.26240
N1197       N  0.90119713  0.65619557  0.85041733     0.00800
C1198       C  0.88804230  0.73578482  0.98100315     0.42190
C1199       C  0.79045491  0.65181755  0.85282462    -0.07490
N1200       N  0.87070526  0.75442189  0.82592341    -0.26240
H1201       H  0.78195296  0.75109255  0.86752576     0.06340
N1202       N  0.89747518  0.71279614  0.96511397    -0.47460
H1203       H  0.79201309  0.62846526  0.85330073     0.06330
C1204       C  0.84233655  0.66979420  0.76382922     0.42030
C1205       C  0.88414848  0.64778921  0.93945919    -0.06990
Co1206     Co  0.85811288  0.66177081  0.85488813     0.73820
N1207       N  0.77785392  0.69619654  0.83793898    -0.47180
C1208       C  0.98478409  0.74214288  0.88734678     0.42290
N1209       N  0.91120806  0.64220375  0.82789709    -0.47170
Co1210     Co  0.83761668  0.72641102  0.83735105     0.73890
C1211       C  0.87581752  0.76136660  0.79886080    -0.07500
C1212       C  0.88268495  0.75858231  0.95904896    -0.07060
N1213       N  0.92156139  0.66548336  0.86810265    -0.26590
N1214       N  0.83047837  0.78748256  0.90584177    -0.47350
H1215       H  0.96372785  0.78729271  0.88045652     0.06300
C1216       C  0.85381249  0.65271887  0.78756970    -0.07470
Cl1217     Cl  0.87376452  0.71022030  0.87081989    -0.50470
C1218       C  0.76684822  0.66902409  0.84043185     0.42060
H1219       H  0.96780829  0.65927587  0.86770656     0.06270
N1220       N  0.83802233  0.69690417  0.77532437    -0.47180
C1221       C  0.63066987  0.93279860  0.83904658     0.41910
N1222       N  0.64502152  0.89537701  0.86027936     0.00800
C1223       C  0.75264045  0.88874417  0.96398234    -0.07080
H1224       H  0.77477112  0.96497151  0.88001330     0.06290
C1225       C  0.75506362  0.87652128  0.80265419    -0.07430
Co1226     Co  0.68343362  0.90957538  0.91026245     0.74180
N1227       N  0.73826543  0.93685486  0.88978782    -0.26610
Co1228     Co  0.75134524  0.89166244  0.89184017     0.74070
C1229       C  0.77678739  0.89936166  0.80437531     0.42010
N1230       N  0.68945790  0.84566250  0.80774512     0.00410
N1231       N  0.76056257  0.89028467  0.84702413     0.00520
N1232       N  0.70734255  0.90350037  0.97171972    -0.47460
H1233       H  0.65121064  0.96364954  0.87277572     0.06280
N1234       N  0.71116472  0.94297278  0.89620220     0.00800
N1235       N  0.76165678  0.84692368  0.89214419     0.00540
C1236       C  0.77887170  0.80483315  0.90153578     0.42150
N1237       N  0.66330228  0.85191966  0.81696077    -0.26060
C1238       C  0.65652330  0.86536313  0.95121696    -0.06980
N1239       N  0.63058749  0.90404904  0.83789513    -0.47170
N1240       N  0.78161663  0.83361674  0.90767492    -0.47390
C1241       C  0.64820612  0.83521909  0.94857630     0.41920
N1242       N  0.71295801  0.90112516  0.94356563     0.00790
N1243       N  0.66647971  0.80874572  0.86188801    -0.26090
N1244       N  0.65485219  0.91698826  0.87662718    -0.26580
N1245       N  0.69212065  0.80164378  0.85208501     0.00430
H1246       H  0.62623715  0.78516622  0.86472873     0.06320
H1247       H  0.74768716  0.78285929  0.86954437     0.06360
N1248       N  0.73950390  0.89273481  0.93774352    -0.26630
N1249       N  0.74702420  0.87157660  0.82958136    -0.26240
N1250       N  0.65043410  0.85318424  0.90640063     0.00800
C1251       C  0.73016159  0.98589404  0.88938203     0.42190
C1252       C  0.64509347  0.85074586  0.79421944    -0.07490
N1253       N  0.74775797  0.82837694  0.87486826    -0.26240
H1254       H  0.74776509  0.86367654  0.78439848     0.06340
N1255       N  0.70574098  0.97125897  0.89651821    -0.47460
H1256       H  0.62187731  0.85225548  0.79575319     0.06330
C1257       C  0.66704339  0.76124081  0.84937541     0.42030
C1258       C  0.64596072  0.94203385  0.86510423    -0.06990
Co1259     Co  0.65568805  0.85283323  0.86222226     0.73820
N1260       N  0.68990314  0.83849213  0.77953770    -0.47180
C1261       C  0.73068419  0.89585823  0.98713775     0.42290
N1262       N  0.64359079  0.82955978  0.92042779    -0.47170
Co1263     Co  0.71998978  0.83697653  0.84094430     0.73890
C1264       C  0.75561887  0.80181951  0.88093886    -0.07500
C1265       C  0.75206748  0.96260344  0.88489868    -0.07060
N1266       N  0.65895614  0.87446477  0.92393292    -0.26590
N1267       N  0.77938604  0.90678926  0.83273377    -0.47350
H1268       H  0.77485325  0.88243684  0.96674349     0.06300
C1269       C  0.64934661  0.78493747  0.86151714    -0.07470
Cl1270     Cl  0.70304836  0.87299168  0.87620696    -0.50470
C1271       C  0.66270817  0.84201135  0.76894961     0.42060
H1272       H  0.66249487  0.87707004  0.97059837     0.06270
N1273       N  0.69310223  0.77383536  0.84332399    -0.47180
C1274       C  0.36784708  0.89008865  0.57835257     0.41910
N1275       N  0.36468683  0.85728626  0.61008406     0.00800
C1276       C  0.45409603  0.73733598  0.61602046    -0.07080
H1277       H  0.37530102  0.73265685  0.52987563     0.06290
C1278       C  0.29410139  0.74621260  0.60919882    -0.07430
Co1279     Co  0.41009074  0.81339471  0.59915725     0.74180
N1280       N  0.38738982  0.76422442  0.56307488    -0.26610
Co1281     Co  0.38378446  0.74541715  0.60579900     0.74070
C1282       C  0.29758330  0.72278499  0.58788660     0.42010
N1283       N  0.30045607  0.80923625  0.64793934     0.00410
N1284       N  0.33921388  0.73891843  0.60107586     0.00520
N1285       N  0.46601707  0.78378066  0.60945663    -0.47460
H1286       H  0.40381808  0.86610979  0.55354563     0.06280
N1287       N  0.39697427  0.79118646  0.56112834     0.00800
N1288       N  0.37929607  0.73095810  0.64852471     0.00540
C1289       C  0.38633848  0.71232093  0.68995704     0.42150
N1290       N  0.31165190  0.83545623  0.64520976    -0.26060
C1291       C  0.44647383  0.83352334  0.65153931    -0.06980
N1292       N  0.35429136  0.88246705  0.60288942    -0.47170
N1293       N  0.39522286  0.71137516  0.66198444    -0.47390
C1294       C  0.43982231  0.84204466  0.68146126     0.41920
N1295       N  0.43789741  0.77997862  0.60769036     0.00790
N1296       N  0.35114004  0.82449509  0.69105663    -0.26090
N1297       N  0.38436799  0.84788102  0.59152591    -0.26580
N1298       N  0.33882752  0.79929737  0.69512380     0.00430
H1299       H  0.35637132  0.86300685  0.71743231     0.06320
H1300       H  0.35057556  0.73961759  0.71111591     0.06360
N1301       N  0.42954270  0.75307205  0.61124350    -0.26630
N1302       N  0.32044171  0.75286173  0.61788215    -0.26240
N1303       N  0.40080055  0.83942382  0.65709389     0.00800
C1304       C  0.39070755  0.77826730  0.51602592     0.42190
C1305       C  0.29031582  0.85502529  0.65027769    -0.07490
N1306       N  0.35991566  0.74330161  0.66606897    -0.26240
H1307       H  0.27472368  0.75282183  0.62066142     0.06340
N1308       N  0.39933604  0.80014308  0.53395303    -0.47460
H1309       H  0.29375755  0.87798731  0.65381881     0.06330
C1310       C  0.33510611  0.82275725  0.73630149     0.42030
C1311       C  0.38779668  0.86715330  0.57063229    -0.06990
Co1312     Co  0.35744975  0.83969129  0.64992688     0.73820
N1313       N  0.27266820  0.80995694  0.65590098    -0.47180
C1314       C  0.47878337  0.75844669  0.61496767     0.42290
N1315       N  0.41103213  0.84367862  0.68307193    -0.47170
Co1316     Co  0.32969942  0.77505936  0.65638929     0.73890
C1317       C  0.36333107  0.73327497  0.69239387    -0.07500
C1318       C  0.38275902  0.75420575  0.53560808    -0.07060
N1319       N  0.42095909  0.83213338  0.63819929    -0.26590
N1320       N  0.32634527  0.71986899  0.58350242    -0.47350
H1321       H  0.45482804  0.71418041  0.61904581     0.06300
C1322       C  0.35067309  0.84030635  0.71564634    -0.07470
Cl1323     Cl  0.36973441  0.79339232  0.62741148    -0.50470
C1324       C  0.26406217  0.83808426  0.65741746     0.42060
H1325       H  0.46718829  0.82819348  0.64215124     0.06270
N1326       N  0.32764495  0.79770441  0.72186798    -0.47180
C1327       C  0.26216272  0.65561712  0.83372074     0.41910
N1328       N  0.30841613  0.64660557  0.83202446     0.00800
C1329       C  0.40323383  0.66228061  0.71373500    -0.07080
H1330       H  0.34581533  0.57548782  0.69917974     0.06290
C1331       C  0.39241883  0.53302806  0.80461490    -0.07430
Co1332     Co  0.33549765  0.65758048  0.77420076     0.74180
N1333       N  0.34715301  0.60353066  0.73729141    -0.26610
Co1334     Co  0.39105228  0.60561869  0.75068734     0.74070
C1335       C  0.38695228  0.51647059  0.77802746     0.42010
N1336       N  0.37225325  0.58964132  0.85201871     0.00410
N1337       N  0.38904887  0.56258220  0.76883327     0.00520
N1338       N  0.37041309  0.69212811  0.73408500    -0.47460
H1339       H  0.26170852  0.66234074  0.78439333     0.06280
N1340       N  0.32727682  0.62077319  0.74907599     0.00800
N1341       N  0.43675544  0.60797639  0.76580724     0.00540
C1342       C  0.48429043  0.60560414  0.77348966     0.42150
N1343       N  0.35372193  0.61035158  0.85857516    -0.26060
C1344       C  0.33165462  0.72313859  0.79766316    -0.06980
N1345       N  0.28604505  0.65102666  0.84989420    -0.47170
N1346       N  0.46305495  0.60929226  0.75272000    -0.47390
C1347       C  0.33487759  0.73664897  0.82679590     0.41920
N1348       N  0.36998718  0.66699511  0.74663683     0.00790
N1349       N  0.39667179  0.65542029  0.84698014    -0.26090
N1350       N  0.30144586  0.64925966  0.80455098    -0.26580
N1351       N  0.41608829  0.63500744  0.84213640     0.00430
H1352       H  0.39987630  0.70192630  0.84660849     0.06320
H1353       H  0.47631409  0.59658228  0.82133543     0.06360
N1354       N  0.38966213  0.64878582  0.73586392    -0.26630
N1355       N  0.39347901  0.56071626  0.79699377    -0.26240
N1356       N  0.35011106  0.69236096  0.82662596     0.00800
C1357       C  0.30457152  0.59951215  0.71416645     0.42190
C1358       C  0.33526793  0.60126614  0.87833975    -0.07490
N1359       N  0.43981941  0.60315105  0.79360726    -0.26240
H1360       H  0.39665296  0.52539268  0.82613258     0.06340
N1361       N  0.30219578  0.61842074  0.73631919    -0.47460
H1362       H  0.31789869  0.61376315  0.88794149     0.06330
C1363       C  0.44005636  0.67483057  0.83979892     0.42030
C1364       C  0.27282103  0.65505596  0.80341505    -0.06990
Co1365     Co  0.35282506  0.65063405  0.84198269     0.73820
N1366       N  0.36752776  0.56592628  0.86727704    -0.47180
C1367       C  0.39013653  0.69129496  0.71292302     0.42290
N1368       N  0.34606476  0.71575565  0.84329353    -0.47170
Co1369     Co  0.40520158  0.59668485  0.82213463     0.73890
C1370       C  0.46801187  0.60121414  0.80011108    -0.07500
C1371       C  0.33467828  0.58931561  0.71466720    -0.07060
N1372       N  0.34196299  0.69575213  0.79980122    -0.26590
N1373       N  0.38520087  0.53631470  0.75640691    -0.47350
H1374       H  0.41882539  0.65249378  0.69912200     0.06300
C1375       C  0.40995011  0.68093138  0.84551454    -0.07470
Cl1376     Cl  0.37085945  0.62741274  0.79702442    -0.50470
C1377       C  0.34418064  0.57223800  0.88377471     0.42060
H1378       H  0.31997957  0.73131154  0.77937531     0.06270
N1379       N  0.44225755  0.64584677  0.83865885    -0.47180
C1380       C  0.17066446  0.74078325  0.65389456     0.41910
N1381       N  0.17209902  0.69405989  0.64610078     0.00800
C1382       C  0.28298758  0.59237195  0.66017918    -0.07080
H1383       H  0.29109177  0.65752801  0.56481466     0.06290
C1384       C  0.19725513  0.60783590  0.52876107    -0.07430
Co1385     Co  0.22846511  0.66538482  0.65745578     0.74180
N1386       N  0.26194458  0.65329126  0.60151892    -0.26610
Co1387     Co  0.24858162  0.60935692  0.60361205     0.74070
C1388       C  0.22514335  0.61114126  0.51349451     0.42010
N1389       N  0.14617776  0.63051761  0.58837158     0.00410
N1390       N  0.23126569  0.61136767  0.56041148     0.00520
N1391       N  0.26713585  0.62698574  0.69124144    -0.47460
H1392       H  0.21967871  0.74133927  0.66302855     0.06280
N1393       N  0.25187788  0.67282801  0.62031716     0.00800
N1394       N  0.23203097  0.56451868  0.60552965     0.00540
C1395       C  0.22339782  0.51705732  0.60431748     0.42150
N1396       N  0.14398650  0.65087880  0.60867183    -0.26060
C1397       C  0.20552445  0.67084331  0.72225270    -0.06980
N1398       N  0.15450967  0.71676281  0.64861238    -0.47170
N1399       N  0.24448300  0.53816564  0.60782049    -0.47390
C1400       C  0.17648062  0.66905305  0.73556569     0.41920
N1401       N  0.25527489  0.62992734  0.66575847     0.00790
N1402       N  0.15064501  0.60671417  0.65133776    -0.26090
N1403       N  0.19939848  0.70077064  0.65010850    -0.26580
N1404       N  0.15535670  0.58746442  0.63035541     0.00430
H1405       H  0.13606632  0.60276909  0.69515437     0.06320
H1406       H  0.17577118  0.52508992  0.59466161     0.06360
N1407       N  0.26374288  0.60958566  0.64682105    -0.26630
N1408       N  0.20306387  0.60812762  0.55723214    -0.26240
N1409       N  0.17599856  0.65147046  0.69147504     0.00800
C1410       C  0.27787352  0.69816960  0.59164355     0.42190
C1411       C  0.11958354  0.66496975  0.60649110    -0.07490
N1412       N  0.20425214  0.56181386  0.60026804    -0.26240
H1413       H  0.17625302  0.60343762  0.51965992     0.06340
N1414       N  0.26043056  0.69914665  0.61477763    -0.47460
H1415       H  0.11138370  0.67948943  0.62316207     0.06330
C1416       C  0.14147833  0.56250693  0.66570095     0.42030
C1417       C  0.20073431  0.72980264  0.65557120    -0.06990
Co1418     Co  0.16053403  0.65019199  0.64887982     0.73820
N1419       N  0.12150972  0.62805196  0.57391681    -0.47180
C1420       C  0.28480138  0.60403543  0.68991424     0.42290
N1421       N  0.15965022  0.65696790  0.71475055    -0.47170
Co1422     Co  0.17671241  0.59735181  0.59342311     0.73890
C1423       C  0.19711293  0.53346325  0.59913496    -0.07500
C1424       C  0.27939711  0.66739043  0.58271101    -0.07060
N1425       N  0.20301551  0.65928143  0.69514636    -0.26590
N1426       N  0.24525297  0.61290808  0.53489736    -0.47350
H1427       H  0.29442320  0.57438182  0.65025809     0.06300
C1428       C  0.14158231  0.59283369  0.67451540    -0.07470
Cl1429     Cl  0.20370213  0.63070171  0.62572143    -0.50470
C1430       C  0.10388938  0.64903192  0.58494593     0.42060
H1431       H  0.22402467  0.68283802  0.73011606     0.06270
N1432       N  0.14956521  0.56074368  0.63793684    -0.47180
C1433       C  0.16245703  0.94832861  0.64186823     0.41910
N1434       N  0.14642069  0.90676185  0.65407714     0.00800
C1435       C  0.03496384  0.88507264  0.75246396    -0.07080
H1436       H  0.11850464  0.96468434  0.78256683     0.06290
C1437       C  0.19577110  0.87975145  0.76072820    -0.07430
Co1438     Co  0.09174773  0.91192713  0.68741760     0.74180
N1439       N  0.10789526  0.93665692  0.74558234    -0.26610
Co1440     Co  0.10671469  0.89097769  0.75515430     0.74070
C1441       C  0.19286235  0.90111035  0.78381794     0.42010
N1442       N  0.19500646  0.85152895  0.69498688     0.00410
N1443       N  0.15100523  0.89114296  0.76634353     0.00520
N1444       N  0.02912332  0.89805104  0.70628431    -0.47460
H1445       H  0.12266539  0.97164215  0.66041551     0.06280
N1446       N  0.10141740  0.94310131  0.71885204     0.00800
N1447       N  0.10684247  0.84648406  0.76322119     0.00540
C1448       C  0.10117566  0.80536277  0.78359437     0.42150
N1449       N  0.18785412  0.86096104  0.66941255    -0.26060
C1450       C  0.06418464  0.88997179  0.63433492    -0.06980
N1451       N  0.16814393  0.91978826  0.64155573    -0.47170
N1452       N  0.09285865  0.83340231  0.78454280    -0.47390
C1453       C  0.07396183  0.87400943  0.60909291     0.41920
N1454       N  0.05696235  0.89743362  0.71321954     0.00790
N1455       N  0.14393019  0.81673117  0.66528540    -0.26090
N1456       N  0.12668440  0.92520199  0.66349566    -0.26580
N1457       N  0.15021947  0.80795126  0.69154746     0.00430
H1458       H  0.14835911  0.79569177  0.62330143     0.06320
H1459       H  0.13509359  0.78410752  0.75405233     0.06360
N1460       N  0.06160064  0.88999095  0.74029340    -0.26630
N1461       N  0.16927525  0.87379373  0.75224928    -0.26240
N1462       N  0.10169537  0.86404450  0.64430803     0.00800
C1463       C  0.10843051  0.98591683  0.73839789     0.42190
C1464       C  0.21137924  0.86065588  0.65194735    -0.07490
N1465       N  0.12501190  0.82874577  0.74954370    -0.26240
H1466       H  0.21475908  0.86808678  0.75351607     0.06340
N1467       N  0.10150282  0.97122267  0.71397453    -0.47460
H1468       H  0.21103405  0.86405101  0.62886079     0.06330
C1469       C  0.15812944  0.76968332  0.66417882     0.42030
C1470       C  0.13468241  0.95200233  0.65622245    -0.06990
Co1471     Co  0.14412146  0.86237832  0.65808860     0.73820
N1472       N  0.22263248  0.84299536  0.69543550    -0.47180
C1473       C  0.01288393  0.89044169  0.72952537     0.42290
N1474       N  0.09659402  0.85792609  0.61696408    -0.47170
Co1475     Co  0.15963131  0.84050920  0.72305045     0.73890
C1476       C  0.12132933  0.80228115  0.75955406    -0.07500
C1477       C  0.11282399  0.96245948  0.75999270    -0.07060
N1478       N  0.08295550  0.88313941  0.65483183    -0.26590
N1479       N  0.16432317  0.90718057  0.78651500    -0.47350
H1480       H  0.03120406  0.87936720  0.77477368     0.06300
C1481       C  0.14790782  0.79406795  0.64660956    -0.07470
Cl1482     Cl  0.12528969  0.87599583  0.70596397    -0.50470
C1483       C  0.23501087  0.84896113  0.66914634     0.42060
H1484       H  0.05038920  0.90877315  0.63534310     0.06270
N1485       N  0.15945014  0.78056300  0.69165411    -0.47180
C1486       C  0.23411891  0.66840892  0.84548835     0.41910
N1487       N  0.18772183  0.67257484  0.85338945     0.00800
C1488       C  0.09563284  0.78950613  0.83884810    -0.07080
H1489       H  0.15705606  0.80242139  0.93192236     0.06290
C1490       C  0.10243032  0.70159735  0.96774821    -0.07430
Co1491     Co  0.16588863  0.73242511  0.84475707     0.74180
N1492       N  0.15451334  0.76733473  0.90037415    -0.26610
Co1493     Co  0.11049266  0.75742907  0.89670589     0.74070
C1494       C  0.10876099  0.72714499  0.98577475     0.42010
N1495       N  0.12062638  0.65556896  0.90869309     0.00410
N1496       N  0.10961674  0.73830319  0.93974593     0.00520
N1497       N  0.13034772  0.77139006  0.80939608    -0.47460
H1498       H  0.23859486  0.71792009  0.84154278     0.06280
N1499       N  0.17425464  0.75510016  0.88330633     0.00800
N1500       N  0.06496841  0.74601059  0.89213670     0.00540
C1501       C  0.01777695  0.74078689  0.88954267     0.42150
N1502       N  0.13834836  0.64716436  0.88770842    -0.26060
C1503       C  0.17068199  0.71010437  0.77857101    -0.06980
N1504       N  0.20892725  0.65350648  0.84868997    -0.47170
N1505       N  0.04008418  0.76072903  0.88848786    -0.47390
C1506       C  0.16480050  0.68195191  0.76368674     0.41920
N1507       N  0.13353909  0.76214564  0.83580935     0.00790
N1508       N  0.09854637  0.66058603  0.84404545    -0.26090
N1509       N  0.19694361  0.69965158  0.85240071    -0.26580
N1510       N  0.08017788  0.66844982  0.86466193     0.00430
H1511       H  0.09242510  0.64257066  0.80131446     0.06320
H1512       H  0.02155724  0.69226318  0.89763590     0.06360
N1513       N  0.11315457  0.77197598  0.85381357    -0.26630
N1514       N  0.10331538  0.71039543  0.94029751    -0.26240
N1515       N  0.14698470  0.68236610  0.80738537     0.00800
C1516       C  0.19826549  0.78613151  0.90886835     0.42190
C1517       C  0.14778907  0.62092027  0.89285046    -0.07490
N1518       N  0.05984378  0.71834305  0.89571302    -0.26240
H1519       H  0.09632128  0.68006938  0.97438159     0.06340
N1520       N  0.20019868  0.76513239  0.88846621    -0.47460
H1521       H  0.16086905  0.60774412  0.87836254     0.06330
C1522       C  0.05357251  0.65393156  0.83057104     0.42030
C1523       C  0.22578901  0.69926857  0.84744533    -0.06990
Co1524     Co  0.14251037  0.66534563  0.84848811     0.73820
N1525       N  0.11765564  0.63589722  0.92886183    -0.47180
C1526       C  0.10709610  0.78843945  0.80922449     0.42290
N1527       N  0.15028456  0.66621806  0.78346287    -0.47170
Co1528     Co  0.09140909  0.68778670  0.90265142     0.73890
C1529       C  0.03155196  0.71323735  0.89473669    -0.07500
C1530       C  0.16774162  0.78748999  0.91715592    -0.07060
N1531       N  0.15857215  0.70829760  0.80540355    -0.26590
N1532       N  0.11295744  0.74939156  0.96670573    -0.47350
H1533       H  0.07670477  0.80039827  0.84730576     0.06300
C1534       C  0.08352676  0.65097150  0.82143632    -0.07470
Cl1535     Cl  0.12793632  0.71081897  0.87333953    -0.50470
C1536       C  0.13323468  0.61334864  0.91910549     0.42060
H1537       H  0.18491216  0.72728109  0.77161098     0.06270
N1538       N  0.05315100  0.66476364  0.85738239    -0.47180
C1539       C  0.32445127  0.83398438  0.76513977     0.41910
N1540       N  0.32546392  0.85116827  0.80914014     0.00800
C1541       C  0.21793907  0.84081630  0.91435472    -0.07080
H1542       H  0.20268790  0.92969637  0.84627040     0.06290
C1543       C  0.30491538  0.97167177  0.89252666    -0.07430
Co1544     Co  0.27047862  0.84115357  0.84049697     0.74180
N1545       N  0.23587464  0.89692330  0.84988641    -0.26610
Co1546     Co  0.25061849  0.89760397  0.89293859     0.74070
C1547       C  0.27819445  0.98825380  0.89066186     0.42010
N1548       N  0.35310783  0.91286163  0.86983939     0.00410
N1549       N  0.26894263  0.94141682  0.88937007     0.00520
N1550       N  0.23626706  0.80832844  0.88252831    -0.47460
H1551       H  0.27568210  0.82535190  0.76855419     0.06280
N1552       N  0.24543617  0.87696616  0.83122023     0.00800
N1553       N  0.26717276  0.89640773  0.93632943     0.00540
C1554       C  0.27592834  0.89447760  0.98281677     0.42150
N1555       N  0.35555071  0.89278058  0.84922408    -0.26060
C1556       C  0.29431187  0.77721289  0.83810634    -0.06980
N1557       N  0.34190657  0.84431548  0.78634073    -0.47170
N1558       N  0.25470903  0.89203743  0.96231472    -0.47390
C1559       C  0.32348257  0.76472685  0.83926130     0.41920
N1560       N  0.24562701  0.83439962  0.87697132     0.00790
N1561       N  0.35233740  0.85209467  0.89552877    -0.26090
N1562       N  0.29786729  0.84620674  0.80437127    -0.26580
N1563       N  0.34360166  0.87234716  0.91394567     0.00430
H1564       H  0.38314408  0.81771769  0.89989887     0.06320
H1565       H  0.32368035  0.90459623  0.97515205     0.06360
N1566       N  0.23598243  0.85426399  0.89564979    -0.26630
N1567       N  0.29727352  0.94363287  0.89186040    -0.26240
N1568       N  0.32414869  0.80942181  0.85467052     0.00800
C1569       C  0.21439815  0.90047280  0.80683584     0.42190
C1570       C  0.38107196  0.89454992  0.83648894    -0.07490
N1571       N  0.29495223  0.90152192  0.93872289    -0.26240
H1572       H  0.32644516  0.97955211  0.89694009     0.06340
N1573       N  0.23352629  0.87884932  0.80577869    -0.47460
H1574       H  0.38975575  0.87746073  0.82278458     0.06330
C1575       C  0.37212284  0.84780735  0.93880770     0.42030
C1576       C  0.29502525  0.83528818  0.77714918    -0.06990
Co1577     Co  0.33941555  0.85190539  0.85247943     0.73820
N1578       N  0.37827178  0.92609965  0.87411172    -0.47180
C1579       C  0.21868341  0.81000904  0.90552281     0.42290
N1580       N  0.34055481  0.78628531  0.84956990    -0.47170
Co1581     Co  0.32230497  0.90794493  0.90303793     0.73890
C1582       C  0.30222469  0.90105552  0.96679102    -0.07500
C1583       C  0.21554684  0.91268429  0.83640042    -0.07060
N1584       N  0.29691185  0.80485195  0.84818761    -0.26590
N1585       N  0.25656028  0.96779262  0.88907537    -0.47350
H1586       H  0.20629717  0.85111210  0.93204313     0.06300
C1587       C  0.37073965  0.83522771  0.90949724    -0.07470
Cl1588     Cl  0.29563685  0.87493830  0.87180959    -0.50470
C1589       C  0.39688561  0.91496769  0.85416575     0.42060
H1590       H  0.27559322  0.76844969  0.82718567     0.06270
N1591       N  0.35429081  0.87010370  0.93980457    -0.47180
C1592       C  0.17873948  0.66785735  0.26527565     0.41910
N1593       N  0.17945171  0.65674664  0.31090602     0.00800
C1594       C  0.28883215  0.66921676  0.41336439    -0.07080
H1595       H  0.30313979  0.58016386  0.33870237     0.06290
C1596       C  0.21065179  0.53252544  0.38385293    -0.07430
Co1597     Co  0.23405486  0.66843427  0.34180981     0.74180
N1598       N  0.27179135  0.61408736  0.34710316    -0.26610
Co1599     Co  0.25862828  0.61072591  0.39070030     0.74070
C1600       C  0.23805234  0.51748321  0.38155862     0.42010
N1601       N  0.16569655  0.58841118  0.36272056     0.00410
N1602       N  0.24487206  0.56495792  0.38410014     0.00520
N1603       N  0.26714872  0.70127462  0.38488055    -0.47460
H1604       H  0.22736954  0.67920263  0.26659874     0.06280
N1605       N  0.26085717  0.63421397  0.33012151     0.00800
N1606       N  0.24087750  0.60851396  0.43474861     0.00540
C1607       C  0.22914412  0.60617050  0.48091464     0.42150
N1608       N  0.15851089  0.61097737  0.34756891    -0.26060
C1609       C  0.20591063  0.73127330  0.34293107    -0.06980
N1610       N  0.16224994  0.66006279  0.28820590    -0.47170
N1611       N  0.25094376  0.61340480  0.46175814    -0.47390
C1612       C  0.17597888  0.74223144  0.34522889     0.41920
N1613       N  0.25849514  0.67501280  0.37864499     0.00790
N1614       N  0.15761882  0.64918794  0.39844928    -0.26090
N1615       N  0.20666148  0.66245925  0.30513642    -0.26580
N1616       N  0.16362076  0.62555143  0.41293672     0.00430
H1617       H  0.14452009  0.69185749  0.41288007     0.06320
H1618       H  0.18440707  0.58877455  0.46986806     0.06360
N1619       N  0.27000360  0.65522826  0.39559367    -0.26630
N1620       N  0.21683742  0.56078015  0.38555191    -0.26240
N1621       N  0.17852166  0.69717737  0.35928349     0.00800
C1622       C  0.28904233  0.61024216  0.30198429     0.42190
C1623       C  0.14500652  0.60218623  0.32446485    -0.07490
N1624       N  0.21406086  0.59918296  0.43564055    -0.26240
H1625       H  0.18941006  0.52335294  0.38716720     0.06340
N1626       N  0.27041556  0.63220890  0.30349671    -0.47460
H1627       H  0.13533793  0.61698596  0.30966653     0.06330
C1628       C  0.15265297  0.65589154  0.44571600     0.42030
C1629       C  0.20846658  0.67010902  0.27689648    -0.06990
Co1630     Co  0.16740411  0.65317163  0.35486201     0.73820
N1631       N  0.15565493  0.56395972  0.35165906    -0.47180
C1632       C  0.28650324  0.70013540  0.40607997     0.42290
N1633       N  0.16054582  0.71923796  0.35499389    -0.47170
Co1634     Co  0.18923832  0.59314510  0.39878951     0.73890
C1635       C  0.20553064  0.59609509  0.46310109    -0.07500
C1636       C  0.29048861  0.59806490  0.33106272    -0.07060
N1637       N  0.20533758  0.70345186  0.35216925    -0.26590
N1638       N  0.25873726  0.53921989  0.38224752    -0.47350
H1639       H  0.30252491  0.65908763  0.42905619     0.06300
C1640       C  0.14959524  0.66961048  0.41765598    -0.07470
Cl1641     Cl  0.21259161  0.63155208  0.37151582    -0.50470
C1642       C  0.14097644  0.57139036  0.32787564     0.42060
H1643       H  0.22382710  0.74109092  0.33159468     0.06270
N1644       N  0.15979829  0.62858050  0.44086446    -0.47180
C1645       C  0.33318773  0.56120957  0.14256133     0.41910
N1646       N  0.35273673  0.60243219  0.14610997     0.00800
C1647       C  0.46420389  0.62120042  0.24321533    -0.07080
H1648       H  0.38409568  0.54161612  0.27175628     0.06290
C1649       C  0.30603504  0.63137291  0.25571267    -0.07430
Co1650     Co  0.40788887  0.59546582  0.17762334     0.74180
N1651       N  0.39219392  0.56995528  0.23516243    -0.26610
Co1652     Co  0.39384522  0.61650104  0.24692545     0.74070
C1653       C  0.30878420  0.60920327  0.27739914     0.42010
N1654       N  0.30758297  0.66041379  0.19080725     0.00410
N1655       N  0.35019247  0.61762731  0.25853258     0.00520
N1656       N  0.46993509  0.60831200  0.19626975    -0.47460
H1657       H  0.37263350  0.53699991  0.15734450     0.06280
N1658       N  0.39846931  0.56333028  0.20804629     0.00800
N1659       N  0.39482540  0.66165945  0.25790874     0.00540
C1660       C  0.40046576  0.70362856  0.27901316     0.42150
N1661       N  0.31345492  0.65039258  0.16470370    -0.26060
C1662       C  0.43829813  0.62212325  0.12657660    -0.06980
N1663       N  0.32865853  0.58950424  0.13843873    -0.47170
N1664       N  0.40750960  0.67500635  0.28035802    -0.47390
C1665       C  0.42971291  0.64119709  0.10373807     0.41920
N1666       N  0.44228036  0.60933644  0.20358466     0.00790
N1667       N  0.35923666  0.69282674  0.16013269    -0.26090
N1668       N  0.37238657  0.58368612  0.15460222    -0.26580
N1669       N  0.35435035  0.70189186  0.18695732     0.00430
H1670       H  0.35739076  0.71508873  0.11928195     0.06320
H1671       H  0.37013737  0.72484910  0.24690804     0.06360
N1672       N  0.43784814  0.61673303  0.23104064    -0.26630
N1673       N  0.33251587  0.63626988  0.24618911    -0.26240
N1674       N  0.39799127  0.64372976  0.13668027     0.00800
C1675       C  0.39343527  0.51992113  0.22670230     0.42190
C1676       C  0.28978629  0.65260227  0.14811259    -0.07490
N1677       N  0.37839505  0.67986985  0.24365464    -0.26240
H1678       H  0.28735951  0.64403233  0.25014605     0.06340
N1679       N  0.39974657  0.53491141  0.20256849    -0.47460
H1680       H  0.28944935  0.64951133  0.12487797     0.06330
C1681       C  0.35110531  0.74166955  0.16163068     0.42030
C1682       C  0.36223293  0.55684578  0.15145114    -0.06990
Co1683     Co  0.35649463  0.64693287  0.15148210     0.73820
N1684       N  0.28091140  0.67129330  0.19261272    -0.47180
C1685       C  0.48569757  0.61557533  0.21977935     0.42290
N1686       N  0.40512282  0.65425088  0.11145124    -0.47170
Co1687     Co  0.34350964  0.66952634  0.21778125     0.73890
C1688       C  0.38261363  0.70649456  0.25365472    -0.07500
C1689       C  0.38850113  0.54387806  0.24889952    -0.07060
N1690       N  0.41690410  0.62466423  0.14593263    -0.26590
N1691       N  0.33689510  0.60168749  0.27829663    -0.47350
H1692       H  0.46797357  0.62666423  0.26571350     0.06300
C1693       C  0.35769586  0.71619728  0.14266383    -0.07470
Cl1694     Cl  0.37563792  0.63240588  0.19852211    -0.50470
C1695       C  0.26793471  0.66658391  0.16654370     0.42060
H1696       H  0.45527405  0.60614979  0.12675161     0.06270
N1697       N  0.34854668  0.73027032  0.18857968    -0.47180
C1698       C  0.43021921  0.88467430  0.33780329     0.41910
N1699       N  0.39481847  0.86005534  0.35349532     0.00800
C1700       C  0.38660517  0.75743494  0.46042968    -0.07080
H1701       H  0.46492471  0.73339134  0.38166509     0.06290
C1702       C  0.36988012  0.74336470  0.30333366    -0.07430
Co1703     Co  0.40817957  0.82593495  0.40537572     0.74180
N1704       N  0.43532007  0.76966086  0.38694624    -0.26610
Co1705     Co  0.39068132  0.75531170  0.39033625     0.74070
C1706       C  0.39398205  0.72339015  0.30383542     0.42010
N1707       N  0.34065976  0.81003006  0.30750276     0.00410
N1708       N  0.38819019  0.74290141  0.34610421     0.00520
N1709       N  0.39838629  0.80428997  0.46837093    -0.47460
H1710       H  0.46045831  0.86803790  0.37336538     0.06280
N1711       N  0.44051693  0.79735675  0.39219907     0.00800
N1712       N  0.34697260  0.74313389  0.39420495     0.00540
C1713       C  0.30647547  0.72484163  0.40819339     0.42150
N1714       N  0.34845025  0.83670216  0.31445601    -0.26060
C1715       C  0.38324361  0.87724595  0.43665202    -0.06980
N1716       N  0.40231513  0.87886083  0.33409200    -0.47170
N1717       N  0.33548903  0.72312432  0.41131218    -0.47390
C1718       C  0.36241105  0.89912611  0.42953741     0.41920
N1719       N  0.39793239  0.79792707  0.44011889     0.00790
N1720       N  0.30862902  0.83788989  0.36218517    -0.26090
N1721       N  0.41623119  0.85296403  0.37067815    -0.26580
N1722       N  0.30067868  0.81136916  0.35480192     0.00430
H1723       H  0.28724795  0.87913341  0.35939603     0.06320
H1724       H  0.28138851  0.75427153  0.37784789     0.06360
N1725       N  0.39124973  0.77050960  0.43463603    -0.26630
N1726       N  0.36746922  0.75395047  0.32996970    -0.26240
N1727       N  0.35573259  0.86239709  0.40149371     0.00800
C1728       C  0.48394434  0.77968271  0.38849818     0.42190
C1729       C  0.34413783  0.85373730  0.29141798    -0.07490
N1730       N  0.32711736  0.75626302  0.37879199    -0.26240
H1731       H  0.35513787  0.74831801  0.28615743     0.06340
N1732       N  0.46835561  0.80387955  0.39340364    -0.47460
H1733       H  0.34532284  0.87713691  0.29191033     0.06330
C1734       C  0.26211931  0.83763511  0.34842092     0.42030
C1735       C  0.43984172  0.86796486  0.36259782    -0.06990
Co1736     Co  0.35240470  0.84904637  0.35865756     0.73820
N1737       N  0.32954943  0.80818476  0.28080941    -0.47180
C1738       C  0.39136649  0.77999805  0.48312735     0.42290
N1739       N  0.34568243  0.88803728  0.40841920    -0.47170
Co1740     Co  0.33416647  0.78190514  0.34297294     0.73890
C1741       C  0.30138589  0.74798276  0.38785259    -0.07500
C1742       C  0.46163548  0.75646839  0.38420078    -0.07060
N1743       N  0.37780678  0.85545651  0.41793037    -0.26590
N1744       N  0.40431857  0.72375896  0.33127181    -0.47350
H1745       H  0.38108613  0.73485243  0.46310636     0.06300
C1746       C  0.28582363  0.85574688  0.35947840    -0.07470
Cl1747     Cl  0.37131862  0.80300037  0.37422992    -0.50470
C1748       C  0.33133457  0.83500502  0.26888078     0.42060
H1749       H  0.40274237  0.87966092  0.44915007     0.06270
N1750       N  0.27345824  0.81054097  0.34542299    -0.47180
C1751       C  0.16665209  0.67795156  0.23667574     0.41910
N1752       N  0.15324549  0.67673851  0.19146726     0.00800
C1753       C  0.16465501  0.78405481  0.08859378    -0.07080
H1754       H  0.07217142  0.79738632  0.15935298     0.06290
C1755       C  0.03064942  0.69997474  0.10860046    -0.07430
Co1756     Co  0.16225299  0.73182027  0.16131541     0.74180
N1757       N  0.10652091  0.76608664  0.15341136    -0.26610
Co1758     Co  0.10618332  0.75247149  0.10962019     0.74070
C1759       C  0.01444503  0.72707690  0.11117593     0.42010
N1760       N  0.08867426  0.65414776  0.13456956     0.00410
N1761       N  0.06159504  0.73540540  0.11297724     0.00520
N1762       N  0.19550566  0.76551762  0.12050504    -0.47460
H1763       H  0.17424598  0.72725484  0.23460645     0.06280
N1764       N  0.12604420  0.75613708  0.17160075     0.00800
N1765       N  0.10724056  0.73544934  0.06566153     0.00540
C1766       C  0.10810497  0.72641434  0.01889061     0.42150
N1767       N  0.11070624  0.64972651  0.15191227    -0.26060
C1768       C  0.22675694  0.70772798  0.16046460    -0.06980
N1769       N  0.15899923  0.66023821  0.21417783    -0.47170
N1770       N  0.11074962  0.74789724  0.03967453    -0.47390
C1771       C  0.23934308  0.67848944  0.15663886     0.41920
N1772       N  0.16921061  0.75678938  0.12571207     0.00790
N1773       N  0.15055878  0.65097702  0.10414859    -0.26090
N1774       N  0.15707766  0.70447757  0.19714041    -0.26580
N1775       N  0.12852663  0.65609431  0.08712495     0.00430
H1776       H  0.18264760  0.61825343  0.10376246     0.06320
H1777       H  0.09854284  0.67820992  0.02653206     0.06360
N1778       N  0.15010029  0.76649269  0.10700907    -0.26630
N1779       N  0.05883745  0.70705453  0.10979281    -0.26240
N1780       N  0.19430500  0.67833337  0.14380502     0.00800
C1781       C  0.10045783  0.78464295  0.19803367     0.42190
C1782       C  0.10310695  0.63226082  0.17273180    -0.07490
N1783       N  0.10213076  0.70740826  0.06301730    -0.26240
H1784       H  0.02239622  0.67851442  0.10371671     0.06340
N1785       N  0.12262814  0.76625582  0.19798407    -0.47460
H1786       H  0.11733301  0.62374224  0.18893113     0.06330
C1787       C  0.14771133  0.61832798  0.06910651     0.42030
C1788       C  0.16573359  0.70751980  0.22499263    -0.06990
Co1789     Co  0.15186251  0.66369056  0.14714772     0.73820
N1790       N  0.06599561  0.63809301  0.14179323    -0.47180
C1791       C  0.19515929  0.78273833  0.09770393     0.42290
N1792       N  0.21749378  0.66170660  0.14655764    -0.47170
Co1793     Co  0.09428584  0.68081063  0.09884203     0.73890
C1794       C  0.10237458  0.69988349  0.03488379    -0.07500
C1795       C  0.08955255  0.78490573  0.16828106    -0.07060
N1796       N  0.19891222  0.70542457  0.15181228    -0.26590
N1797       N  0.03546335  0.74831447  0.11354271    -0.47350
H1798       H  0.15532415  0.79565446  0.07084458     0.06300
C1799       C  0.16590241  0.62961280  0.09242754    -0.07470
Cl1800     Cl  0.12853308  0.70732287  0.12936479    -0.50470
C1801       C  0.07391911  0.62482537  0.16639199     0.42060
H1802       H  0.23591681  0.72628617  0.17169146     0.06270
N1803       N  0.12655464  0.63740800  0.06554430    -0.47180
C1804       C  0.23451163  0.84832018  0.33480522     0.41910
N1805       N  0.18929731  0.86045270  0.33176725     0.00800
C1806       C  0.09084027  0.83708157  0.21930446    -0.07080
H1807       H  0.15458982  0.92500862  0.20097922     0.06290
C1808       C  0.10498391  0.97287108  0.29919029    -0.07430
Co1809     Co  0.16196901  0.84375173  0.27542696     0.74180
N1810       N  0.15155042  0.89622629  0.23742954    -0.26610
Co1811     Co  0.10815165  0.89555952  0.24992940     0.74070
C1812       C  0.10993343  0.98706950  0.27139333     0.42010
N1813       N  0.12306737  0.91860085  0.35181416     0.00410
N1814       N  0.11003558  0.93997992  0.26558885     0.00520
N1815       N  0.12275671  0.80676523  0.23912116    -0.47460
H1816       H  0.23522866  0.83466615  0.28653550     0.06280
N1817       N  0.17074375  0.87915980  0.24959188     0.00800
N1818       N  0.06349601  0.89415615  0.26420492     0.00540
C1819       C  0.01660705  0.89499591  0.27177175     0.42150
N1820       N  0.14440726  0.90051368  0.35691630    -0.26060
C1821       C  0.16506675  0.78037587  0.30215227    -0.06980
N1822       N  0.21108539  0.85736423  0.35011364    -0.47170
N1823       N  0.03774326  0.89112610  0.25089077    -0.47390
C1824       C  0.16269340  0.76923952  0.33204154     0.41920
N1825       N  0.12680696  0.83328847  0.24882528     0.00790
N1826       N  0.10148801  0.85461179  0.35025596    -0.26090
N1827       N  0.19630675  0.85344734  0.30484085    -0.26580
N1828       N  0.08212780  0.87427280  0.34368650     0.00430
H1829       H  0.09784155  0.81181610  0.36692666     0.06320
H1830       H  0.02379801  0.90643221  0.31970255     0.06360
N1831       N  0.10792938  0.85170661  0.23799175    -0.26630
N1832       N  0.10523753  0.94429713  0.29359340    -0.26240
N1833       N  0.14728266  0.81394807  0.32995688     0.00800
C1834       C  0.19491694  0.90106066  0.21680274     0.42190
C1835       C  0.15327311  0.90440739  0.38385084    -0.07490
N1836       N  0.06008536  0.90009667  0.29186872    -0.26240
H1837       H  0.09961313  0.98270550  0.31992464     0.06340
N1838       N  0.19651373  0.88225377  0.23847739    -0.47460
H1839       H  0.16663875  0.88883791  0.39461923     0.06330
C1840       C  0.05745240  0.83932578  0.35994567     0.42030
C1841       C  0.22440137  0.84528964  0.30456379    -0.06990
Co1842     Co  0.14525042  0.85809726  0.34245228     0.73820
N1843       N  0.11410298  0.93153673  0.37597662    -0.47180
C1844       C  0.10077879  0.80712120  0.22036982     0.42290
N1845       N  0.15194529  0.79192869  0.34772693    -0.47170
Co1846     Co  0.09307489  0.90969109  0.32044587     0.73890
C1847       C  0.03213288  0.90101725  0.29843216    -0.07500
C1848       C  0.16490351  0.91073482  0.21601778    -0.07060
N1849       N  0.15479120  0.80794725  0.30307995    -0.26590
N1850       N  0.11256200  0.96505671  0.25134050    -0.47350
H1851       H  0.07400008  0.84635950  0.20637394     0.06300
C1852       C  0.08776376  0.83152897  0.35986110    -0.07470
Cl1853     Cl  0.12748548  0.87696109  0.29700006    -0.50470
C1854       C  0.13116980  0.92232104  0.39725195     0.42060
H1855       H  0.17660087  0.77074987  0.28401976     0.06270
N1856       N  0.05549706  0.86629317  0.34989580    -0.47180
C1857       C  0.34431367  0.95720632  0.16908399     0.41910
N1858       N  0.33801631  0.91289889  0.15619203     0.00800
C1859       C  0.25123644  0.88511200  0.03658529    -0.07080
H1860       H  0.21713733  0.96207562  0.12300794     0.06290
C1861       C  0.23538982  0.87260812  0.19517186    -0.07430
Co1862     Co  0.31219746  0.91222227  0.09648704     0.74180
N1863       N  0.25316602  0.93426055  0.10997848    -0.26610
Co1864     Co  0.24519970  0.88794195  0.10736542     0.74070
C1865       C  0.21525488  0.89615077  0.19315629     0.42010
N1866       N  0.29850013  0.84741845  0.19782194     0.00410
N1867       N  0.23171004  0.88599945  0.15090311     0.00520
N1868       N  0.29792116  0.89808659  0.03248106    -0.47460
H1869       H  0.32751885  0.97431253  0.12733498     0.06280
N1870       N  0.27930610  0.94129882  0.10180499     0.00800
N1871       N  0.23854178  0.84327196  0.10449928     0.00540
C1872       C  0.22042094  0.80153880  0.09367753     0.42150
N1873       N  0.32226751  0.86249226  0.19455385    -0.26060
C1874       C  0.36910772  0.88849802  0.07265041    -0.06980
N1875       N  0.34779885  0.92946399  0.17743967    -0.47170
N1876       N  0.21864961  0.83014194  0.08835267    -0.47390
C1877       C  0.39432236  0.87598810  0.08654130     0.41920
N1878       N  0.29027605  0.89549568  0.06010540     0.00790
N1879       N  0.33638691  0.82087416  0.14867457    -0.26090
N1880       N  0.32901232  0.92848045  0.13431291    -0.26580
N1881       N  0.31059314  0.80850397  0.14954191     0.00430
H1882       H  0.37924303  0.80290150  0.15286835     0.06320
H1883       H  0.24955793  0.77939162  0.12658251     0.06360
N1884       N  0.26281437  0.88833655  0.06352346    -0.26630
N1885       N  0.24396581  0.86716566  0.16843997    -0.26240
N1886       N  0.35835823  0.87335617  0.11499999     0.00800
C1887       C  0.26082617  0.98384395  0.11000208     0.42190
C1888       C  0.33725175  0.86267938  0.21942215    -0.07490
N1889       N  0.25237465  0.82502312  0.12129774    -0.26240
H1890       H  0.24236908  0.86099914  0.21399139     0.06340
N1891       N  0.28415216  0.96937816  0.10097237    -0.47460
H1892       H  0.35939464  0.86978183  0.22149980     0.06330
C1893       C  0.34009669  0.77166192  0.15294740     0.42030
C1894       C  0.33113782  0.95636235  0.14134125    -0.06990
Co1895     Co  0.33891330  0.86787651  0.15333135     0.73820
N1896       N  0.29713112  0.83549943  0.22412999    -0.47180
C1897       C  0.27481153  0.89164595  0.01564707     0.42290
N1898       N  0.38598182  0.86864770  0.11304527    -0.47170
Co1899     Co  0.27532734  0.83651760  0.15885117     0.73890
C1900       C  0.24391593  0.79832953  0.11437590    -0.07500
C1901       C  0.23931381  0.96002758  0.11595124    -0.07060
N1902       N  0.34793706  0.88645162  0.09228298    -0.26590
N1903       N  0.21323678  0.90333538  0.16494719    -0.47350
H1904       H  0.22883134  0.88045034  0.03212906     0.06300
C1905       C  0.35631696  0.79942142  0.15046963    -0.07470
Cl1906     Cl  0.29295728  0.87558216  0.12862723    -0.50470
C1907       C  0.32083746  0.84460281  0.23936042     0.42060
H1908       H  0.36841397  0.90130095  0.05329238     0.06270
N1909       N  0.31189341  0.77981473  0.15301670    -0.47180
C1910       C  0.87872626  0.57347281  0.34378723     0.41910
N1911       N  0.84465060  0.60329367  0.34913285     0.00800
C1912       C  0.74459681  0.62122793  0.45966817    -0.07080
H1913       H  0.71727471  0.54402780  0.38067717     0.06290
C1914       C  0.73890861  0.62820867  0.30062285    -0.07430
Co1915     Co  0.81295283  0.59653441  0.40448631     0.74180
N1916       N  0.75527460  0.57133470  0.38708012    -0.26610
Co1917     Co  0.74439015  0.61658445  0.38916633     0.74070
C1918       C  0.71635123  0.60650805  0.30346754     0.42010
N1919       N  0.80327686  0.65847996  0.30254764     0.00410
N1920       N  0.73368105  0.61686865  0.34527935     0.00520
N1921       N  0.79068551  0.60844327  0.46692902    -0.47460
H1922       H  0.86687620  0.55054102  0.38621963     0.06280
N1923       N  0.78231841  0.56473053  0.39232706     0.00800
N1924       N  0.73560135  0.66084498  0.39070608     0.00540
C1925       C  0.71780633  0.70251682  0.40121073     0.42150
N1926       N  0.82871265  0.64892272  0.30987403    -0.26060
C1927       C  0.86280772  0.62350089  0.43624875    -0.06980
N1928       N  0.86493741  0.59496293  0.33130906    -0.47170
N1929       N  0.71588876  0.67399934  0.40714142    -0.47390
C1930       C  0.88651009  0.64257042  0.42849065     0.41920
N1931       N  0.78500585  0.60952614  0.43881076     0.00790
N1932       N  0.83184535  0.69254326  0.35508011    -0.26090
N1933       N  0.84070970  0.58547887  0.37081700    -0.26580
N1934       N  0.80579388  0.70138069  0.34828094     0.00430
H1935       H  0.87364322  0.71318331  0.35190721     0.06320
H1936       H  0.74705267  0.72473180  0.36803280     0.06360
N1937       N  0.75808257  0.61689041  0.43359831    -0.26630
N1938       N  0.74710248  0.63459073  0.32728043    -0.26240
N1939       N  0.85348159  0.64575939  0.39643514     0.00800
C1940       C  0.76155719  0.52212699  0.38798903     0.42190
C1941       C  0.84657686  0.64972472  0.28678391    -0.07490
N1942       N  0.74908953  0.67907520  0.37332745    -0.26240
H1943       H  0.74563936  0.63994352  0.28163847     0.06340
N1944       N  0.78666336  0.53643147  0.39308434    -0.47460
H1945       H  0.86958682  0.64640789  0.28737159     0.06330
C1946       C  0.83308504  0.73950076  0.34163464     0.42030
C1947       C  0.86171773  0.56558464  0.36935365    -0.06990
Co1948     Co  0.83960739  0.64722589  0.35351169     0.73820
N1949       N  0.80328900  0.66796075  0.27528440    -0.47180
C1950       C  0.76654189  0.61559318  0.48217612     0.42290
N1951       N  0.87910938  0.65566757  0.40382219    -0.47170
Co1952     Co  0.77515383  0.66844613  0.33796319     0.73890
C1953       C  0.74082081  0.70572302  0.38000432    -0.07500
C1954       C  0.74026841  0.54583091  0.38393806    -0.07060
N1955       N  0.84360495  0.62669214  0.41516127    -0.26590
N1956       N  0.71415226  0.60037561  0.33192032    -0.47350
H1957       H  0.72208622  0.62657296  0.46260893     0.06300
C1958       C  0.85041530  0.71504554  0.35199194    -0.07470
Cl1959     Cl  0.79300671  0.63251836  0.37151656    -0.50470
C1960       C  0.82991686  0.66238821  0.26357591     0.42060
H1961       H  0.86237961  0.60585941  0.45128785     0.06270
N1962       N  0.80579223  0.72877218  0.33928821    -0.47180
C1963       C  0.65586453  0.83900020  0.27017613     0.41910
N1964       N  0.64531242  0.83546348  0.31622262     0.00800
C1965       C  0.66334118  0.71963266  0.40882568    -0.07080
H1966       H  0.57016643  0.70653220  0.34617094     0.06290
C1967       C  0.53300423  0.80597378  0.40151483    -0.07430
Co1968     Co  0.65683970  0.77626776  0.33875446     0.74180
N1969       N  0.60210361  0.74084758  0.34961246    -0.26610
Co1970     Co  0.60528573  0.75151739  0.39418949     0.74070
C1971       C  0.51661218  0.78022166  0.39220492     0.42010
N1972       N  0.59023807  0.85288401  0.38558967     0.00410
N1973       N  0.56259167  0.77024454  0.39469758     0.00520
N1974       N  0.69254192  0.73845836  0.37470183    -0.47460
H1975       H  0.66279875  0.78975268  0.26644796     0.06280
N1976       N  0.61943685  0.75259079  0.33003031     0.00800
N1977       N  0.60890403  0.76338877  0.44041372     0.00540
C1978       C  0.60888884  0.76777832  0.48820194     0.42150
N1979       N  0.61004224  0.86104108  0.36672734    -0.26060
C1980       C  0.72312468  0.79912625  0.33547003    -0.06980
N1981       N  0.65032014  0.85427273  0.29505804    -0.47170
N1982       N  0.61010067  0.74820528  0.46520270    -0.47390
C1983       C  0.73705532  0.82786526  0.34111682     0.41920
N1984       N  0.66613914  0.74755645  0.37157668     0.00790
N1985       N  0.65618916  0.84535591  0.40525847    -0.26090
N1986       N  0.64830578  0.80828852  0.30726315    -0.26580
N1987       N  0.63634938  0.84243159  0.42547190     0.00430
H1988       H  0.70158273  0.85025927  0.40653166     0.06320
H1989       H  0.60272358  0.81678417  0.48531562     0.06360
N1990       N  0.64827011  0.73742134  0.39170582    -0.26630
N1991       N  0.56079316  0.79790084  0.40247185    -0.26240
N1992       N  0.69223970  0.82751563  0.35598056     0.00800
C1993       C  0.59396363  0.72213980  0.30520623     0.42190
C1994       C  0.60086663  0.88452730  0.35373441    -0.07490
N1995       N  0.60613162  0.79120758  0.44619958    -0.26240
H1996       H  0.52500457  0.82732652  0.40710676     0.06340
N1997       N  0.61479537  0.74234566  0.30382817    -0.47460
H1998       H  0.61264334  0.89641954  0.33746729     0.06330
C1999       C  0.67506707  0.85476735  0.44814391     0.42030
C2000       C  0.65497941  0.80832509  0.27867494    -0.06990
Co2001     Co  0.65029865  0.84297552  0.36150023     0.73820
N2002       N  0.56703301  0.86936173  0.38568027    -0.47180
C2003       C  0.69289131  0.72102595  0.39750746     0.42290
N2004       N  0.71577484  0.84399944  0.35327834    -0.47170
Co2005     Co  0.59803797  0.82171962  0.41499782     0.73890
C2006       C  0.60608928  0.79592377  0.47485338    -0.07500
C2007       C  0.58537170  0.72093639  0.33584705    -0.07060
N2008       N  0.69557782  0.80105724  0.34584082    -0.26590
N2009       N  0.53664467  0.75875532  0.38840044    -0.47350
H2010       H  0.65493271  0.70818880  0.42730315     0.06300
C2011       C  0.68136499  0.84795220  0.41793647    -0.07470
Cl2012     Cl  0.62732062  0.79803334  0.37693404    -0.50470
C2013       C  0.57285210  0.89025063  0.36671482     0.42060
H2014       H  0.73146794  0.78120899  0.32262996     0.06270
N2015       N  0.64687084  0.84757930  0.45164131    -0.47180
C2016       C  0.73737842  0.66668067  0.17822020     0.41910
N2017       N  0.69316585  0.65203233  0.17666115     0.00800
C2018       C  0.58547153  0.66892893  0.28236960    -0.07080
H2019       H  0.65412470  0.57832505  0.29507180     0.06290
C2020       C  0.60667751  0.53451095  0.19891932    -0.07430
Co2021     Co  0.65756011  0.66755634  0.22816933     0.74180
N2022       N  0.64841728  0.61310478  0.26457086    -0.26610
Co2023     Co  0.60592826  0.61157640  0.24897266     0.74070
C2024       C  0.61006248  0.51878474  0.22558962     0.42010
N2025       N  0.63795955  0.58532444  0.15685212     0.00410
N2026       N  0.60978128  0.56615260  0.23402596     0.00520
N2027       N  0.61550155  0.70151891  0.26268373    -0.47460
H2028       H  0.73136308  0.68260205  0.22558320     0.06280
N2029       N  0.66638070  0.63348453  0.25528666     0.00800
N2030       N  0.56387178  0.61251983  0.22932235     0.00540
C2031       C  0.51823597  0.61472659  0.21888675     0.42150
N2032       N  0.65765223  0.60535736  0.15171851    -0.26060
C2033       C  0.65590109  0.72972173  0.20082047    -0.06980
N2034       N  0.71696670  0.65520004  0.16093908    -0.47170
N2035       N  0.53766318  0.61719667  0.24090710    -0.47390
C2036       C  0.65752481  0.74061985  0.17106512     0.41920
N2037       N  0.62012978  0.67561704  0.25162760     0.00790
N2038       N  0.61278241  0.64665039  0.14139215    -0.26090
N2039       N  0.69596172  0.66086610  0.20363656    -0.26580
N2040       N  0.59271807  0.62731674  0.14759708     0.00430
H2041       H  0.61704728  0.67878053  0.10872171     0.06320
H2042       H  0.52742890  0.60329252  0.17111540     0.06360
N2043       N  0.60249038  0.65569358  0.26222567    -0.26630
N2044       N  0.60678887  0.56262410  0.20593938    -0.26240
N2045       N  0.64790687  0.69411658  0.17063697     0.00800
C2046       C  0.69225976  0.60859474  0.28360704     0.42190
C2047       C  0.68264247  0.59235655  0.14665787    -0.07490
N2048       N  0.56258312  0.60699255  0.20117801    -0.26240
H2049       H  0.60342113  0.52611238  0.17723810     0.06340
N2050       N  0.69226399  0.63105185  0.26578417    -0.47460
H2051       H  0.70285167  0.60348324  0.14343062     0.06330
C2052       C  0.57680085  0.65018122  0.11226477     0.42030
C2053       C  0.72334544  0.67085414  0.20685370    -0.06990
Co2054     Co  0.65234376  0.64917720  0.15945897     0.73820
N2055       N  0.64845338  0.55876413  0.15485776    -0.47180
C2056       C  0.59428543  0.69964506  0.28238403     0.42290
N2057       N  0.65295934  0.71686304  0.15373431    -0.47170
Co2058     Co  0.59966279  0.59566408  0.17728031     0.73890
C2059       C  0.53500580  0.60789204  0.19278716    -0.07500
C2060       C  0.66289059  0.59651057  0.28342227    -0.07060
N2061       N  0.64990343  0.70105720  0.19838955    -0.26590
N2062       N  0.61152087  0.54009576  0.24703000    -0.47350
H2063       H  0.56980091  0.65825913  0.29600828     0.06300
C2064       C  0.60454232  0.66211212  0.11925412    -0.07470
Cl2065     Cl  0.62867532  0.63128750  0.20357274    -0.50470
C2066       C  0.67679358  0.56144220  0.14915880     0.42060
H2067       H  0.66267337  0.74065258  0.22051707     0.06270
N2068       N  0.57022599  0.62865518  0.13030061    -0.47180
C2069       C  0.66865517  0.85162022  0.24267351     0.41910
N2070       N  0.67030206  0.86247875  0.19684153     0.00800
C2071       C  0.78238899  0.83900461  0.09571753    -0.07080
H2072       H  0.79677225  0.93151015  0.15919779     0.06290
C2073       C  0.70308093  0.97442532  0.10876392    -0.07430
Co2074     Co  0.72555649  0.84592597  0.16679282     0.74180
N2075       N  0.76290936  0.89918297  0.15590918    -0.26610
Co2076     Co  0.75037682  0.89720666  0.11225916     0.74070
C2077       C  0.73144936  0.98839545  0.11243433     0.42010
N2078       N  0.64836189  0.91978078  0.13068515     0.00410
N2079       N  0.73539639  0.94133296  0.11398041     0.00520
N2080       N  0.76246296  0.80923418  0.12839330    -0.47460
H2081       H  0.71645969  0.83796143  0.24094693     0.06280
N2082       N  0.75140717  0.88165772  0.17534140     0.00800
N2083       N  0.73543491  0.89479561  0.06770865     0.00540
C2084       C  0.72869910  0.89507501  0.02046060     0.42150
N2085       N  0.64517865  0.90288980  0.15335886    -0.26060
C2086       C  0.69933257  0.78129081  0.16428480    -0.06980
N2087       N  0.65273884  0.85971736  0.21964629    -0.47170
N2088       N  0.74895712  0.89160456  0.04182763    -0.47390
C2089       C  0.66966324  0.76954486  0.16119301     0.41920
N2090       N  0.75198246  0.83540356  0.13140127     0.00790
N2091       N  0.64918559  0.85626941  0.10977959    -0.26090
N2092       N  0.69714990  0.85553587  0.20253868    -0.26580
N2093       N  0.65604501  0.87510428  0.08963188     0.00430
H2094       H  0.63229270  0.81300671  0.10749125     0.06320
H2095       H  0.68102656  0.90636785  0.02723842     0.06360
N2096       N  0.76280465  0.85354703  0.11211458    -0.26630
N2097       N  0.70753957  0.94578292  0.10989803    -0.26240
N2098       N  0.67065772  0.81609484  0.15338865     0.00800
C2099       C  0.78170009  0.90698370  0.19976792     0.42190
C2100       C  0.61956618  0.90750423  0.16542464    -0.07490
N2101       N  0.70791295  0.90067260  0.06444741    -0.26240
H2102       H  0.68278870  0.98427008  0.10328971     0.06340
N2103       N  0.76158170  0.88619451  0.20135094    -0.47460
H2104       H  0.61020552  0.89325747  0.18128006     0.06330
C2105       C  0.64038270  0.83870952  0.06653438     0.42030
C2106       C  0.69827617  0.84819361  0.23083730    -0.06990
Co2107     Co  0.65847238  0.86018997  0.15311282     0.73820
N2108       N  0.62331755  0.93157872  0.12372986    -0.47180
C2109       C  0.78179258  0.80937641  0.10668849     0.42290
N2110       N  0.65332612  0.79302080  0.15526834    -0.47170
Co2111     Co  0.67964307  0.91084001  0.09899030     0.73890
C2112       C  0.70185847  0.90117845  0.03609199    -0.07500
C2113       C  0.78280537  0.91585126  0.16943409    -0.07060
N2114       N  0.69768803  0.81004559  0.15877269    -0.26590
N2115       N  0.75055159  0.96619592  0.11513174    -0.47350
H2116       H  0.79577712  0.84819882  0.07893935     0.06300
C2117       C  0.63939847  0.83249624  0.09693548    -0.07470
Cl2118     Cl  0.70359528  0.87876045  0.13306376    -0.50470
C2119       C  0.60391320  0.92358924  0.14408028     0.42060
H2120       H  0.71814182  0.77048720  0.17250168     0.06270
N2121       N  0.65026923  0.86571807  0.06325282    -0.47180
C2122       C  0.93773206  0.62982066  0.14505334     0.41910
N2123       N  0.89741137  0.64973887  0.14034524     0.00800
C2124       C  0.88184119  0.75642100  0.03759592    -0.07080
H2125       H  0.96313407  0.77421194  0.12036596     0.06290
C2126       C  0.88344123  0.76218425  0.19847223    -0.07430
Co2127     Co  0.90124152  0.68513937  0.08794049     0.74180
N2128       N  0.93296347  0.74050240  0.10654271    -0.26610
Co2129     Co  0.88885879  0.75576523  0.10840001     0.74070
C2130       C  0.90374947  0.78565307  0.19460203     0.42010
N2131       N  0.85097608  0.69913878  0.19728361     0.00410
N2132       N  0.89238292  0.76722714  0.15295243     0.00520
N2133       N  0.88852242  0.70905556  0.02800600    -0.47460
H2134       H  0.95708299  0.64930913  0.10440802     0.06280
N2135       N  0.93714776  0.71341660  0.09788308     0.00800
N2136       N  0.84512323  0.76788084  0.11160293     0.00540
C2137       C  0.80310050  0.78612911  0.10575791     0.42150
N2138       N  0.85791912  0.67266668  0.18885256    -0.26060
C2139       C  0.86418444  0.63189145  0.06314892    -0.06980
N2140       N  0.91152184  0.63238176  0.15752836    -0.47170
N2141       N  0.83088817  0.78745560  0.09641803    -0.47390
C2142       C  0.84058405  0.61409874  0.07561525     0.41920
N2143       N  0.88797420  0.71434324  0.05637436     0.00790
N2144       N  0.81103157  0.67405795  0.14917428    -0.26090
N2145       N  0.91373964  0.65824759  0.11851018    -0.26580
N2146       N  0.80483097  0.70071676  0.15739029     0.00430
H2147       H  0.78747081  0.63380103  0.15192674     0.06320
H2148       H  0.78377893  0.75904845  0.14215512     0.06360
N2149       N  0.88449397  0.74207884  0.06311946    -0.26630
N2150       N  0.87605338  0.75379965  0.17215660    -0.26240
N2151       N  0.84768454  0.65143484  0.10226117     0.00800
C2152       C  0.98135572  0.72914592  0.10689183     0.42190
C2153       C  0.85395160  0.65469880  0.21134860    -0.07490
N2154       N  0.82834400  0.75561756  0.13131675    -0.26240
H2155       H  0.87212083  0.75581712  0.21792651     0.06340
N2156       N  0.96499551  0.70609137  0.09804318    -0.47460
H2157       H  0.85313687  0.63133201  0.20946857     0.06330
C2158       C  0.76620667  0.67602702  0.16688744     0.42030
C2159       C  0.93949307  0.64636016  0.11955218    -0.06990
Co2160     Co  0.85431047  0.66192393  0.14461120     0.73820
N2161       N  0.84072849  0.69996824  0.22441026    -0.47180
C2162       C  0.88450991  0.73417405  0.01387982     0.42290
N2163       N  0.83104667  0.62886646  0.09843654    -0.47170
Co2164     Co  0.84035309  0.72832478  0.16426205     0.73890
C2165       C  0.80166057  0.76474158  0.12817709    -0.07500
C2166       C  0.95947539  0.75230805  0.11255037    -0.07060
N2167       N  0.86691293  0.65509937  0.08136038    -0.26590
N2168       N  0.90856286  0.78770605  0.16559045    -0.47350
H2169       H  0.88032948  0.77967122  0.03563862     0.06300
C2170       C  0.78775855  0.65713508  0.15341790    -0.07470
Cl2171     Cl  0.87110215  0.70785045  0.12625737    -0.50470
C2172       C  0.84229552  0.67276591  0.23510991     0.42060
H2173       H  0.87938355  0.62599055  0.04623684     0.06270
N2174       N  0.77846120  0.70276071  0.16902646    -0.47180
C2175       C  0.84392013  0.76799798  0.32930393     0.41910
N2176       N  0.85429384  0.81419892  0.32848065     0.00800
C2177       C  0.83477948  0.91512406  0.21915549    -0.07080
H2178       H  0.92675230  0.85026423  0.20192457     0.06290
C2179       C  0.96750323  0.90087324  0.29839090    -0.07430
Co2180     Co  0.84006583  0.84317120  0.27330482     0.74180
N2181       N  0.89363332  0.85378951  0.23522589    -0.26610
Co2182     Co  0.89248599  0.89736034  0.24901243     0.74070
C2183       C  0.98352394  0.89513730  0.27170335     0.42010
N2184       N  0.91602000  0.87641761  0.34447502     0.00410
N2185       N  0.93685780  0.89577264  0.26363799     0.00520
N2186       N  0.80410944  0.88288312  0.23879602    -0.47460
H2187       H  0.83215278  0.76862301  0.28082266     0.06280
N2188       N  0.87536728  0.83452638  0.24608469     0.00800
N2189       N  0.88982838  0.94170832  0.26561110     0.00540
C2190       C  0.88705231  0.98842364  0.27435275     0.42150
N2191       N  0.89662659  0.85687378  0.35221015    -0.26060
C2192       C  0.77748021  0.83975535  0.30025456    -0.06980
N2193       N  0.85145254  0.79142400  0.34571381    -0.47170
N2194       N  0.88539160  0.96739611  0.25298025    -0.47390
C2195       C  0.76531794  0.84077297  0.32981331     0.41920
N2196       N  0.83038473  0.87866355  0.24790709     0.00790
N2197       N  0.85464470  0.90098300  0.35713688    -0.26090
N2198       N  0.84861116  0.80789413  0.30121299    -0.26580
N2199       N  0.87376949  0.92038779  0.34822185     0.00430
H2200       H  0.83387634  0.89515100  0.39804848     0.06320
H2201       H  0.89713584  0.98204156  0.32231479     0.06360
N2202       N  0.84903080  0.89765037  0.23721662    -0.26630
N2203       N  0.93968832  0.90084889  0.29152315    -0.26240
N2204       N  0.80962035  0.85776714  0.32946538     0.00800
C2205       C  0.90077749  0.80985437  0.21543172     0.42190
C2206       C  0.90966096  0.83590017  0.36592215    -0.07490
N2207       N  0.89454901  0.94505873  0.29353915    -0.26240
H2208       H  0.97550426  0.90555347  0.31984268     0.06340
N2209       N  0.87933797  0.80853396  0.23506672    -0.47460
H2210       H  0.89956195  0.81676020  0.37467873     0.06330
C2211       C  0.86280828  0.93490404  0.39059675     0.42030
C2212       C  0.84146793  0.77932223  0.29955057    -0.06990
Co2213     Co  0.85379079  0.85815972  0.34210115     0.73820
N2214       N  0.94237658  0.87022465  0.35281365    -0.47180
C2215       C  0.80481020  0.90525571  0.22065917     0.42290
N2216       N  0.78693756  0.85194251  0.34652045    -0.47170
Co2217     Co  0.90570801  0.91064710  0.31948575     0.73890
C2218       C  0.89316323  0.97315803  0.30090691    -0.07500
C2219       C  0.91035676  0.84016589  0.21514506    -0.07060
N2220       N  0.80465861  0.85060354  0.30213105    -0.26590
N2221       N  0.96282314  0.89233880  0.25053562    -0.47350
H2222       H  0.84422257  0.93235816  0.20662291     0.06300
C2223       C  0.84577680  0.90900341  0.38353410    -0.07470
Cl2224     Cl  0.87268847  0.87735620  0.29595163    -0.50470
C2225       C  0.93950889  0.84472157  0.36565734     0.42060
H2226       H  0.76882366  0.82853246  0.28149937     0.06270
N2227       N  0.87907587  0.94089438  0.36763047    -0.47180
C2228       C  0.12247189  0.43516410  0.35033095     0.41910
N2229       N  0.15548350  0.40276239  0.34970890     0.00800
C2230       C  0.25545660  0.38378249  0.46008236    -0.07080
H2231       H  0.28383945  0.46268560  0.37668203     0.06290
C2232       C  0.26595203  0.37086515  0.30211357    -0.07430
Co2233     Co  0.18942656  0.41018538  0.40445202     0.74180
N2234       N  0.24701708  0.43494925  0.38693267    -0.26610
Co2235     Co  0.25763910  0.38912963  0.38988520     0.74070
C2236       C  0.28578230  0.39530633  0.30376956     0.42010
N2237       N  0.20078362  0.34342369  0.30328938     0.00410
N2238       N  0.26929687  0.38645541  0.34608772     0.00520
N2239       N  0.20923512  0.39662506  0.46736535    -0.47460
H2240       H  0.14265122  0.45714057  0.39046160     0.06280
N2241       N  0.21999813  0.44159991  0.39271709     0.00800
N2242       N  0.26557986  0.34461009  0.39279485     0.00540
C2243       C  0.27793445  0.30295742  0.40858275     0.42150
N2244       N  0.17532523  0.35450205  0.30930612    -0.26060
C2245       C  0.13787840  0.38497072  0.43500335    -0.06980
N2246       N  0.13221694  0.41132305  0.33645381    -0.47170
N2247       N  0.28253525  0.33179663  0.41177750    -0.47390
C2248       C  0.11429377  0.36651001  0.42564249     0.41920
N2249       N  0.21610333  0.39741457  0.43933250     0.00790
N2250       N  0.16906301  0.31343171  0.35597422    -0.26090
N2251       N  0.16315934  0.42107385  0.37060454    -0.26580
N2252       N  0.19494455  0.30307234  0.35046486     0.00430
H2253       H  0.12674451  0.29361279  0.35631798     0.06320
H2254       H  0.24847551  0.27959502  0.37591224     0.06360
N2255       N  0.24308452  0.38996315  0.43418934    -0.26630
N2256       N  0.25717683  0.36658824  0.32889011    -0.26240
N2257       N  0.14834236  0.36169468  0.39520581     0.00800
C2258       C  0.23916827  0.48435555  0.38485578     0.42190
C2259       C  0.15888179  0.35305843  0.28530018    -0.07490
N2260       N  0.25150437  0.32561789  0.37630688    -0.26240
H2261       H  0.25911248  0.35775157  0.28385517     0.06340
N2262       N  0.21470839  0.46977636  0.39160734    -0.47460
H2263       H  0.13597657  0.35725475  0.28482597     0.06330
C2264       C  0.16656377  0.26485930  0.34860157     0.42030
C2265       C  0.14404305  0.44249846  0.37212422    -0.06990
Co2266     Co  0.16232725  0.35866951  0.35294548     0.73820
N2267       N  0.20214165  0.33272079  0.27614393    -0.47180
C2268       C  0.23274103  0.38822264  0.48255585     0.42290
N2269       N  0.12252140  0.35218738  0.40167746    -0.47170
Co2270     Co  0.22732924  0.33442738  0.33979323     0.73890
C2271       C  0.25641751  0.29935798  0.38600219    -0.07500
C2272       C  0.26112727  0.46062925  0.38167095    -0.07060
N2273       N  0.15789415  0.38099251  0.41438403    -0.26590
N2274       N  0.28733594  0.40378949  0.33186604    -0.47350
H2275       H  0.27742999  0.37671303  0.46289936     0.06300
C2276       C  0.14991739  0.29119951  0.35567484    -0.07470
Cl2277     Cl  0.20919234  0.37303561  0.37167548    -0.50470
C2278       C  0.17652587  0.33846003  0.26296114     0.42060
H2279       H  0.13782209  0.40237034  0.45095512     0.06270
N2280       N  0.19424241  0.27451013  0.34479535    -0.47180
C2281       C  0.42906722  0.34613775  0.10894346     0.41910
N2282       N  0.39988983  0.35150644  0.14467244     0.00800
C2283       C  0.38795907  0.46347397  0.24872204    -0.07080
H2284       H  0.46520252  0.38132873  0.27130773     0.06290
C2285       C  0.36988313  0.30477243  0.26303591    -0.07430
Co2286     Co  0.40939838  0.40669734  0.17904834     0.74180
N2287       N  0.43613692  0.38889728  0.23535268    -0.26610
Co2288     Co  0.39110176  0.39193908  0.24975215     0.74070
C2289       C  0.39060190  0.30762331  0.28622352     0.42010
N2290       N  0.34605366  0.30546236  0.19381134     0.00410
N2291       N  0.38858624  0.34778114  0.26274165     0.00520
N2292       N  0.40006481  0.47008284  0.20228766    -0.47460
H2293       H  0.45436756  0.38750006  0.12307215     0.06280
N2294       N  0.44177417  0.39408704  0.20777270     0.00800
N2295       N  0.34663725  0.39401155  0.26060352     0.00540
C2296       C  0.30484394  0.40290648  0.27947584     0.42150
N2297       N  0.35481961  0.31116628  0.16736201    -0.26060
C2298       C  0.36897493  0.44294223  0.14111309    -0.06980
N2299       N  0.40594600  0.33521666  0.12211473    -0.47170
N2300       N  0.33355711  0.40863950  0.28198269    -0.47390
C2301       C  0.34366331  0.43552056  0.12434243     0.41920
N2302       N  0.39889007  0.44183196  0.20819452     0.00790
N2303       N  0.31311928  0.35706200  0.16414582    -0.26090
N2304       N  0.41868914  0.37268413  0.14905779    -0.26580
N2305       N  0.30412398  0.35114300  0.19038383     0.00430
H2306       H  0.29235299  0.35558774  0.12246640     0.06320
H2307       H  0.28267363  0.37339924  0.24609048     0.06360
N2308       N  0.39186939  0.43690996  0.23544253    -0.26630
N2309       N  0.36911442  0.33038835  0.25048973    -0.26240
N2310       N  0.35830483  0.39716795  0.14311062     0.00800
C2311       C  0.48488977  0.38826490  0.22548769     0.42190
C2312       C  0.35141896  0.28717514  0.15062167    -0.07490
N2313       N  0.32800106  0.37784968  0.24592603    -0.26240
H2314       H  0.35499853  0.28718737  0.25855529     0.06340
N2315       N  0.46968669  0.39391254  0.20140256    -0.47460
H2316       H  0.35301878  0.28656605  0.12726367     0.06330
C2317       C  0.26556724  0.34671262  0.16334102     0.42030
C2318       C  0.43832803  0.37107768  0.12728385    -0.06990
Co2319     Co  0.35740990  0.35471166  0.15494790     0.73820
N2320       N  0.33518884  0.27874905  0.19585181    -0.47180
C2321       C  0.39343185  0.48615259  0.22643693     0.42290
N2322       N  0.33827683  0.40728951  0.12655243    -0.47170
Co2323     Co  0.33705157  0.34151476  0.22096767     0.73890
C2324       C  0.30157875  0.38464976  0.25395055    -0.07500
C2325       C  0.46222583  0.38492117  0.24846945    -0.07060
N2326       N  0.37657108  0.41738720  0.15210543    -0.26590
N2327       N  0.40121209  0.33517102  0.28523798    -0.47350
H2328       H  0.38262746  0.46676990  0.27134670     0.06300
C2329       C  0.29058248  0.35536795  0.14580142    -0.07470
Cl2330     Cl  0.37392657  0.37353288  0.20133436    -0.50470
C2331       C  0.33837322  0.26546264  0.16956554     0.42060
H2332       H  0.37956232  0.46358603  0.14470281     0.06270
N2333       N  0.27615753  0.34368960  0.19068788    -0.47180
C2334       C  0.33209921  0.17291260  0.27001918     0.41910
N2335       N  0.34670020  0.17274212  0.31432184     0.00800
C2336       C  0.33084458  0.28268474  0.41806808    -0.07080
H2337       H  0.41869993  0.29954249  0.34921800     0.06290
C2338       C  0.46295742  0.19840256  0.39519042    -0.07430
Co2339     Co  0.33284975  0.22700230  0.34642477     0.74180
N2340       N  0.38689110  0.26515011  0.35412033    -0.26610
Co2341     Co  0.38815515  0.25002366  0.39757368     0.74070
C2342       C  0.47873180  0.22493035  0.38886111     0.42010
N2343       N  0.40927986  0.15273666  0.37251164     0.00410
N2344       N  0.43213280  0.23357038  0.39283030     0.00520
N2345       N  0.29902068  0.26055589  0.38870082    -0.47460
H2346       H  0.31968774  0.22106294  0.27401412     0.06280
N2347       N  0.36687958  0.25501979  0.33613796     0.00800
N2348       N  0.38739993  0.23284324  0.44162553     0.00540
C2349       C  0.38720808  0.22384513  0.48833095     0.42150
N2350       N  0.38931353  0.14521918  0.35353111    -0.26060
C2351       C  0.26961917  0.19970048  0.34706517    -0.06980
N2352       N  0.34212916  0.15591688  0.29118806    -0.47170
N2353       N  0.38509645  0.24543000  0.46817420    -0.47390
C2354       C  0.25800790  0.16982558  0.34850313     0.41920
N2355       N  0.32508290  0.25131670  0.38341836     0.00790
N2356       N  0.34690471  0.14370516  0.39838499    -0.26090
N2357       N  0.34003212  0.20003810  0.30998242    -0.26580
N2358       N  0.36757682  0.14897287  0.41730804     0.00430
H2359       H  0.31741930  0.10892805  0.39160439     0.06320
H2360       H  0.39503438  0.17545289  0.47873104     0.06360
N2361       N  0.34458399  0.26301628  0.40092407    -0.26630
N2362       N  0.43502013  0.20557400  0.39726341    -0.26240
N2363       N  0.30360870  0.17083196  0.35979761     0.00800
C2364       C  0.38882417  0.28741157  0.31088869     0.42190
C2365       C  0.40091771  0.12744957  0.33383536    -0.07490
N2366       N  0.39119748  0.20461730  0.44353724    -0.26240
H2367       H  0.47149048  0.17696466  0.39851988     0.06340
N2368       N  0.36771044  0.26747675  0.31078420    -0.47460
H2369       H  0.38985744  0.11712957  0.31588503     0.06330
C2370       C  0.34851184  0.10882773  0.42962711     0.42030
C2371       C  0.33039998  0.20233586  0.28259053    -0.06990
Co2372     Co  0.34698986  0.15811784  0.35693209     0.73820
N2373       N  0.43454897  0.14101531  0.36702703    -0.47180
C2374       C  0.30026842  0.28077437  0.40966925     0.42290
N2375       N  0.28085016  0.15341768  0.35608811    -0.47170
Co2376     Co  0.40062483  0.17793061  0.40786184     0.73890
C2377       C  0.39115678  0.19715742  0.47133096    -0.07500
C2378       C  0.40179951  0.28617701  0.34000082    -0.07060
N2379       N  0.29780201  0.19813402  0.35461673    -0.26590
N2380       N  0.45798663  0.24622896  0.38790818    -0.47350
H2381       H  0.34093528  0.29673468  0.43400432     0.06300
C2382       C  0.33262461  0.12006376  0.40555667    -0.07470
Cl2383     Cl  0.36712704  0.20337570  0.37714110    -0.50470
C2384       C  0.43045761  0.12496746  0.34316192     0.42060
H2385       H  0.25949542  0.21848679  0.33792550     0.06270
N2386       N  0.36980547  0.12778112  0.43612135    -0.47180
C2387       C  0.14471428  0.05518537  0.36493132     0.41910
N2388       N  0.13784210  0.09760960  0.35028806     0.00800
C2389       C  0.03562160  0.12098768  0.24528451    -0.07080
H2390       H  0.12112815  0.03856462  0.22372653     0.06290
C2391       C  0.19532653  0.12130844  0.24674632    -0.07430
Co2392     Co  0.08596529  0.09531549  0.31355758     0.74180
N2393       N  0.10590208  0.06827225  0.25774346    -0.26610
Co2394     Co  0.10648210  0.11376781  0.24697284     0.74070
C2395       C  0.19270021  0.09964259  0.22377269     0.42010
N2396       N  0.19134391  0.15230854  0.31027167     0.00410
N2397       N  0.15063584  0.11231958  0.23851323     0.00520
N2398       N  0.02694460  0.11025393  0.29185858    -0.47460
H2399       H  0.10465322  0.03657744  0.34389463     0.06280
N2400       N  0.09649185  0.06298482  0.28395790     0.00800
N2401       N  0.10816531  0.15807630  0.23857783     0.00540
C2402       C  0.10221180  0.20020387  0.22069960     0.42150
N2403       N  0.18318359  0.14317524  0.33584687    -0.26060
C2404       C  0.05298710  0.12216946  0.36149812    -0.06980
N2405       N  0.15518386  0.08248083  0.36629215    -0.47170
N2406       N  0.09445296  0.17200074  0.21790686    -0.47390
C2407       C  0.06051936  0.13775025  0.38751631     0.41920
N2408       N  0.05485097  0.11026588  0.28600918     0.00790
N2409       N  0.14037938  0.18809559  0.33825001    -0.26090
N2410       N  0.11704116  0.08125381  0.33932850    -0.26580
N2411       N  0.14797952  0.19640676  0.31202682     0.00430
H2412       H  0.14230403  0.21034149  0.37983442     0.06320
H2413       H  0.13399240  0.22066381  0.25301129     0.06360
N2414       N  0.06119837  0.11624402  0.25891895    -0.26630
N2415       N  0.16869419  0.12923696  0.25317616    -0.26240
N2416       N  0.09568184  0.14121023  0.35785265     0.00800
C2417       C  0.10585935  0.01949096  0.26771531     0.42190
C2418       C  0.20591082  0.14511729  0.35398368    -0.07490
N2419       N  0.12550151  0.17547772  0.25352594    -0.26240
H2420       H  0.21451399  0.13201084  0.25482858     0.06340
N2421       N  0.09603627  0.03520320  0.29034300    -0.47460
H2422       H  0.20457298  0.14294602  0.37720997     0.06330
C2423       C  0.15452433  0.23545098  0.33872272     0.42030
C2424       C  0.11950239  0.05423126  0.34793444    -0.06990
Co2425     Co  0.13878355  0.14224481  0.34600371     0.73820
N2426       N  0.21855341  0.16203271  0.31030665    -0.47180
C2427       C  0.01262776  0.11693893  0.26767780     0.42290
N2428       N  0.08675941  0.14967897  0.38363734    -0.47170
Co2429     Co  0.15822657  0.16338627  0.28119301     0.73890
C2430       C  0.12149066  0.20238087  0.24523170    -0.07500
C2431       C  0.11252946  0.04185335  0.24533186    -0.07060
N2432       N  0.07626138  0.12465048  0.34479168    -0.26590
N2433       N  0.16421004  0.09488470  0.21984477    -0.47350
H2434       H  0.03322946  0.12553771  0.22255905     0.06300
C2435       C  0.14338540  0.21130174  0.35649614    -0.07470
Cl2436     Cl  0.12224201  0.12913135  0.29697936    -0.50470
C2437       C  0.22976140  0.15757099  0.33702436     0.42060
H2438       H  0.03521223  0.10735841  0.35783754     0.06270
N2439       N  0.15723538  0.22386232  0.31161436    -0.47180
C2440       C  0.31985944  0.16135404  0.24232924     0.41910
N2441       N  0.31987192  0.14777028  0.19745313     0.00800
C2442       C  0.21755741  0.16399126  0.08993338    -0.07080
H2443       H  0.20106650  0.07254611  0.16124313     0.06290
C2444       C  0.29295489  0.03019866  0.11327629    -0.07430
Co2445     Co  0.26724660  0.16294649  0.16516368     0.74180
N2446       N  0.23107088  0.10824588  0.15591276    -0.26610
Co2447     Co  0.24549433  0.10722256  0.11297446     0.74070
C2448       C  0.26465200  0.01610416  0.11606696     0.42010
N2449       N  0.34444280  0.08452288  0.13895623     0.00410
N2450       N  0.26013693  0.06320247  0.11640814     0.00520
N2451       N  0.23605852  0.19670307  0.12134293    -0.47460
H2452       H  0.27262174  0.17655848  0.23922808     0.06280
N2453       N  0.24085985  0.12819083  0.17434370     0.00800
N2454       N  0.26257112  0.10763082  0.07004696     0.00540
C2455       C  0.27019890  0.10991517  0.02343172     0.42150
N2456       N  0.34704677  0.10511214  0.15884993    -0.26060
C2457       C  0.29518787  0.22641475  0.16271939    -0.06980
N2458       N  0.33646486  0.15087773  0.22057061    -0.47170
N2459       N  0.24971071  0.11281782  0.04463788    -0.47390
C2460       C  0.32533443  0.23683398  0.16046870     0.41920
N2461       N  0.24365981  0.17047590  0.12820766     0.00790
N2462       N  0.34877956  0.14683756  0.11384366    -0.26090
N2463       N  0.29310951  0.15595756  0.20203483    -0.26580
N2464       N  0.34396857  0.12682838  0.09377060     0.00430
H2465       H  0.37247141  0.18646251  0.11493772     0.06320
H2466       H  0.31821741  0.09859317  0.03006954     0.06360
N2467       N  0.23368519  0.15061339  0.10983362    -0.26630
N2468       N  0.28816265  0.05873551  0.11342600    -0.26240
N2469       N  0.32318687  0.19049112  0.15223306     0.00800
C2470       C  0.21348297  0.10174262  0.20028966     0.42190
C2471       C  0.36719751  0.09855300  0.17744979    -0.07490
N2472       N  0.29030363  0.10183313  0.06710644    -0.26240
H2473       H  0.31366782  0.02035032  0.10894269     0.06340
N2474       N  0.23124117  0.12462921  0.20065274    -0.47460
H2475       H  0.37621151  0.11428223  0.19244700     0.06330
C2476       C  0.36944603  0.15896944  0.07373659     0.42030
C2477       C  0.29091016  0.16525008  0.22989991    -0.06990
Co2478     Co  0.33475095  0.14687366  0.15517386     0.73820
N2479       N  0.36512352  0.06483647  0.14187530    -0.47180
C2480       C  0.21967229  0.19480675  0.09756467     0.42290
N2481       N  0.34114108  0.21295626  0.15444043    -0.47170
Co2482     Co  0.31730527  0.09232094  0.10302565     0.73890
C2483       C  0.29695058  0.10270784  0.03884740    -0.07500
C2484       C  0.21278817  0.09076790  0.17036999    -0.07060
N2485       N  0.29615097  0.19752468  0.15696473    -0.26590
N2486       N  0.24512951  0.03821499  0.11742426    -0.47350
H2487       H  0.20651185  0.15356760  0.07204187     0.06300
C2488       C  0.36432252  0.16784775  0.10305846    -0.07470
Cl2489     Cl  0.29114874  0.12719424  0.13418090    -0.50470
C2490       C  0.38004610  0.07232569  0.16631997     0.42060
H2491       H  0.27652869  0.23801292  0.17083503     0.06270
N2492       N  0.35729135  0.13268291  0.06913308    -0.47180
C2493       C  0.06078090  0.34594378  0.17272219     0.41910
N2494       N  0.10049286  0.34288151  0.14951435     0.00800
C2495       C  0.11579587  0.24175979  0.03731137    -0.07080
H2496       H  0.03886566  0.21348052  0.11974304     0.06290
C2497       C  0.13192287  0.23911402  0.19659562    -0.07430
Co2498     Co  0.09150225  0.30789736  0.09523516     0.74180
N2499       N  0.06742514  0.25052757  0.11236292    -0.26610
Co2500     Co  0.11370934  0.24118953  0.10879524     0.74070
C2501       C  0.10782365  0.21916462  0.19633476     0.42010
N2502       N  0.16014232  0.30272246  0.19322455     0.00410
N2503       N  0.11697806  0.23210140  0.15297671     0.00520
N2504       N  0.10164129  0.28789051  0.03204869    -0.47460
H2505       H  0.03460440  0.32778708  0.13519334     0.06280
N2506       N  0.06096263  0.27749910  0.10683497     0.00800
N2507       N  0.15837320  0.23407362  0.10511612     0.00540
C2508       C  0.20023084  0.21870578  0.09170908     0.42150
N2509       N  0.14989828  0.32843627  0.18726139    -0.26060
C2510       C  0.11586153  0.35365970  0.05983226    -0.06980
N2511       N  0.08915490  0.35132453  0.17434381    -0.47170
N2512       N  0.17150297  0.21474348  0.08805937    -0.47390
C2513       C  0.13273481  0.37911178  0.06487639     0.41920
N2514       N  0.10342612  0.28127519  0.05980983     0.00790
N2515       N  0.18960547  0.33286788  0.13955426    -0.26090
N2516       N  0.08092534  0.33237187  0.13147486    -0.26580
N2517       N  0.19948815  0.30681984  0.14532193     0.00430
H2518       H  0.20899688  0.37541190  0.14364779     0.06320
H2519       H  0.22285567  0.25140149  0.12165513     0.06360
N2520       N  0.11163255  0.25437347  0.06402833    -0.26630
N2521       N  0.13657319  0.24557101  0.16926017    -0.26240
N2522       N  0.13921935  0.35090199  0.10025167     0.00800
C2523       C  0.01783989  0.25860100  0.11191029     0.42190
C2524       C  0.15213311  0.34566892  0.21111053    -0.07490
N2525       N  0.17709808  0.24944206  0.12055318    -0.26240
H2526       H  0.14452175  0.24744202  0.21444966     0.06340
N2527       N  0.03301475  0.28268505  0.10604236    -0.47460
H2528       H  0.14832630  0.36876312  0.21166575     0.06330
C2529       C  0.23680740  0.33531284  0.15192101     0.42030
C2530       C  0.05493972  0.33494503  0.14393558    -0.06990
Co2531     Co  0.14433992  0.33949063  0.14336075     0.73820
N2532       N  0.17105232  0.30185478  0.21998955    -0.47180
C2533       C  0.10905504  0.26442943  0.01569335     0.42290
N2534       N  0.14737208  0.37598244  0.08976729    -0.47170
Co2535     Co  0.16842826  0.27486364  0.15686179     0.73890
C2536       C  0.20344512  0.24330450  0.11142074    -0.07500
C2537       C  0.04135322  0.23642769  0.11608157    -0.07060
N2538       N  0.12003809  0.33821187  0.08326585    -0.26590
N2539       N  0.09969930  0.21519134  0.16848329    -0.47350
H2540       H  0.12224357  0.21955522  0.03337598     0.06300
C2541       C  0.21156876  0.35214663  0.14265352    -0.07470
Cl2542     Cl  0.12975043  0.29081181  0.12601214    -0.50470
C2543       C  0.16638811  0.32816302  0.23312764     0.42060
H2544       H  0.09841541  0.35030038  0.04472646     0.06270
N2545       N  0.22707726  0.30752701  0.15355919    -0.47180
C2546       C  0.65586192  0.26302325  0.17027763     0.41910
N2547       N  0.64985191  0.30984904  0.17056154     0.00800
C2548       C  0.66458488  0.41289064  0.28151515    -0.07080
H2549       H  0.57379177  0.34514950  0.29374045     0.06290
C2550       C  0.53374124  0.39354576  0.19751943    -0.07430
Co2551     Co  0.66318150  0.34081948  0.22542753     0.74180
N2552       N  0.60806054  0.35021136  0.26189860    -0.26610
Co2553     Co  0.60810526  0.39401992  0.24871708     0.74070
C2554       C  0.51784173  0.38845487  0.22431270     0.42010
N2555       N  0.58871294  0.36965783  0.15192993     0.00410
N2556       N  0.56436012  0.39066752  0.23257203     0.00520
N2557       N  0.69670349  0.38213509  0.26135776    -0.47460
H2558       H  0.66721654  0.26468114  0.21895514     0.06280
N2559       N  0.62757794  0.33165219  0.25156003     0.00800
N2560       N  0.60977294  0.43833523  0.23281834     0.00540
C2561       C  0.60939454  0.48533549  0.22508460     0.42150
N2562       N  0.60914884  0.35097358  0.14476899    -0.26060
C2563       C  0.72800065  0.34302019  0.19980021    -0.06980
N2564       N  0.65062933  0.28626251  0.15349567    -0.47170
N2565       N  0.61224790  0.46461317  0.24599939    -0.47390
C2566       C  0.74022942  0.34678657  0.17028626     0.41920
N2567       N  0.67097459  0.37749190  0.25087232     0.00790
N2568       N  0.65223717  0.39612891  0.14617672    -0.26090
N2569       N  0.65517075  0.30433160  0.19776725    -0.26580
N2570       N  0.63018653  0.41397653  0.14935415     0.00430
H2571       H  0.68456300  0.39012839  0.11405708     0.06320
H2572       H  0.59979600  0.47665001  0.17686952     0.06360
N2573       N  0.65144158  0.39573237  0.26170788    -0.26630
N2574       N  0.56167518  0.39470434  0.20457931    -0.26240
N2575       N  0.69408674  0.35554076  0.17109643     0.00800
C2576       C  0.60215463  0.30594755  0.28055910     0.42190
C2577       C  0.59919478  0.33282130  0.12472115    -0.07490
N2578       N  0.60543222  0.44074724  0.20478679    -0.26240
H2579       H  0.52533541  0.39714636  0.17612107     0.06340
N2580       N  0.62435849  0.30559627  0.26189535    -0.47460
H2581       H  0.61169297  0.31665001  0.11305970     0.06330
C2582       C  0.64957983  0.42382549  0.10868839     0.42030
C2583       C  0.65963197  0.27541260  0.19984969    -0.06990
Co2584     Co  0.65110962  0.35354361  0.15822366     0.73820
N2585       N  0.56516938  0.36603730  0.13662559    -0.47180
C2586       C  0.69474593  0.40357001  0.28110360     0.42290
N2587       N  0.71722874  0.35371356  0.15390640    -0.47170
Co2588     Co  0.59653479  0.40492756  0.17761211     0.73890
C2589       C  0.60461957  0.46879427  0.19816271    -0.07500
C2590       C  0.59117899  0.33583338  0.28102024    -0.07060
N2591       N  0.69948089  0.34923000  0.19806277    -0.26590
N2592       N  0.53845443  0.38710106  0.24551172    -0.47350
H2593       H  0.65418022  0.42912928  0.29504451     0.06300
C2594       C  0.66767110  0.40345333  0.12332820    -0.07470
Cl2595     Cl  0.62967216  0.37350023  0.20292218    -0.50470
C2596       C  0.57039969  0.34298928  0.11951552     0.42060
H2597       H  0.73832614  0.33379208  0.21839738     0.06270
N2598       N  0.62723694  0.43038147  0.12637608    -0.47180
C2599       C  0.57521940  0.10539485  0.34920809     0.41910
N2600       N  0.60312097  0.14239689  0.35230048     0.00800
C2601       C  0.61229402  0.25150175  0.45731194    -0.07080
H2602       H  0.53062621  0.27179960  0.37919440     0.06290
C2603       C  0.62055455  0.25866288  0.29759377    -0.07430
Co2604     Co  0.58941505  0.18127500  0.40295826     0.74180
N2605       N  0.56043096  0.23592272  0.38447034    -0.26610
Co2606     Co  0.60506681  0.25173135  0.38630824     0.74070
C2607       C  0.59923012  0.28146016  0.30030106     0.42010
N2608       N  0.65184273  0.19282365  0.30228593     0.00410
N2609       N  0.60573639  0.26215746  0.34187010     0.00520
N2610       N  0.59994148  0.20511815  0.46405103    -0.47460
H2611       H  0.54675093  0.12292290  0.38686112     0.06280
N2612       N  0.55551358  0.20815091  0.38941921     0.00800
N2613       N  0.64904504  0.26488641  0.38739170     0.00540
C2614       C  0.69029958  0.28419413  0.39714635     0.42150
N2615       N  0.64562144  0.16630250  0.31041755    -0.26060
C2616       C  0.62817568  0.14716919  0.44203344    -0.06980
N2617       N  0.59903025  0.11770963  0.33861250    -0.47170
N2618       N  0.66168313  0.28531668  0.40379300    -0.47390
C2619       C  0.65472428  0.13130576  0.43890446     0.41920
N2620       N  0.59865992  0.21165250  0.43623686     0.00790
N2621       N  0.68795809  0.17069164  0.35567906    -0.26090
N2622       N  0.58252035  0.14860777  0.37130369    -0.26580
N2623       N  0.69449089  0.19688284  0.34705638     0.00430
H2624       H  0.71261157  0.13122836  0.35808749     0.06320
H2625       H  0.71306120  0.25622617  0.36275772     0.06360
N2626       N  0.60590004  0.23873915  0.43109880    -0.26630
N2627       N  0.62446130  0.24923400  0.32411506    -0.26240
N2628       N  0.64465826  0.14970868  0.39839559     0.00800
C2629       C  0.51177469  0.22571332  0.38619258     0.42190
C2630       C  0.64929083  0.14796980  0.28772438    -0.07490
N2631       N  0.66776492  0.25231654  0.36943678    -0.26240
H2632       H  0.63434448  0.25322813  0.27933125     0.06340
N2633       N  0.52760660  0.20159131  0.39079834    -0.47460
H2634       H  0.64925229  0.12459619  0.28894753     0.06330
C2635       C  0.73523643  0.17336757  0.34486882     0.42030
C2636       C  0.56360275  0.12615564  0.37096674    -0.06990
Co2637     Co  0.64473152  0.15725081  0.35470566     0.73820
N2638       N  0.66150129  0.19346172  0.27502154    -0.47180
C2639       C  0.60828569  0.22867350  0.47965715     0.42290
N2640       N  0.66399964  0.13409988  0.41146960    -0.47170
Co2641     Co  0.65931554  0.22370754  0.33572440     0.73890
C2642       C  0.69393312  0.26210149  0.37498887    -0.07500
C2643       C  0.53402426  0.24885939  0.38196509    -0.07060
N2644       N  0.62344916  0.15752132  0.41589648    -0.26590
N2645       N  0.59094283  0.28267950  0.32854547    -0.47350
H2646       H  0.61926525  0.27370308  0.46044607     0.06300
C2647       C  0.71212113  0.15446629  0.35555530    -0.07470
Cl2648     Cl  0.62435334  0.20357299  0.36957794    -0.50470
C2649       C  0.65999153  0.16595172  0.26413795     0.42060
H2650       H  0.61369559  0.14877483  0.46041775     0.06270
N2651       N  0.72225849  0.19914745  0.33936820    -0.47180
C2652       C  0.82468330  0.34284325  0.26336178     0.41910
N2653       N  0.82307907  0.35942872  0.30793849     0.00800
C2654       C  0.71055362  0.33761347  0.40901466    -0.07080
H2655       H  0.69947107  0.42947087  0.34406491     0.06290
C2656       C  0.78751131  0.47451559  0.39612910    -0.07430
Co2657     Co  0.77000018  0.34218052  0.34065361     0.74180
N2658       N  0.73014659  0.39474931  0.34957225    -0.26610
Co2659     Co  0.74217989  0.39598675  0.39306286     0.74070
C2660       C  0.76106779  0.48913436  0.38988627     0.42010
N2661       N  0.83201053  0.42681987  0.36667825     0.00410
N2662       N  0.75412362  0.44190380  0.39058568     0.00520
N2663       N  0.73356737  0.30637103  0.37922985    -0.47460
H2664       H  0.77803691  0.32573205  0.26770950     0.06280
N2665       N  0.74172915  0.37571012  0.33102933     0.00800
N2666       N  0.75893847  0.39562827  0.43708037     0.00540
C2667       C  0.76838354  0.39514817  0.48355233     0.42150
N2668       N  0.84153624  0.40825345  0.34682100    -0.26060
C2669       C  0.80147875  0.28187713  0.34196131    -0.06980
N2670       N  0.84023190  0.35552169  0.28488598    -0.47170
N2671       N  0.74695919  0.39122597  0.46337938    -0.47390
C2672       C  0.83181618  0.27270177  0.34208815     0.41920
N2673       N  0.74424744  0.33252122  0.37655285     0.00790
N2674       N  0.85357421  0.36887044  0.39228913    -0.26090
N2675       N  0.79670634  0.34983219  0.30367223    -0.26580
N2676       N  0.84272698  0.38754605  0.41131662     0.00430
H2677       H  0.89478930  0.34761026  0.38988018     0.06320
H2678       H  0.81547058  0.40843526  0.47440129     0.06360
N2679       N  0.73155425  0.35160164  0.39420153    -0.26630
N2680       N  0.78148744  0.44638573  0.39560168    -0.26240
N2681       N  0.82852319  0.31856284  0.35419678     0.00800
C2682       C  0.71480553  0.40196463  0.30485020     0.42190
C2683       C  0.85076840  0.42329499  0.32431022    -0.07490
N2684       N  0.78655224  0.40230185  0.43911748    -0.26240
H2685       H  0.80849437  0.48375976  0.40066776     0.06340
N2686       N  0.73333573  0.37974923  0.30444411    -0.47460
H2687       H  0.85974432  0.41424283  0.30449682     0.06330
C2688       C  0.88369182  0.37811164  0.42814562     0.42030
C2689       C  0.79561438  0.33863348  0.27627773    -0.06990
Co2690     Co  0.83730163  0.36390041  0.35084127     0.73820
N2691       N  0.83458660  0.45396449  0.35903593    -0.47180
C2692       C  0.71211835  0.30733600  0.39886770     0.42290
N2693       N  0.84712488  0.29691366  0.34952309    -0.47170
Co2694     Co  0.81090205  0.41515547  0.40325651     0.73890
C2695       C  0.79427515  0.40240804  0.46683983    -0.07500
C2696       C  0.71215804  0.41194007  0.33492266    -0.07060
N2697       N  0.80151554  0.31029735  0.34966749    -0.26590
N2698       N  0.74047328  0.46745881  0.38691196    -0.47350
H2699       H  0.69520007  0.34767220  0.42369797     0.06300
C2700       C  0.87946202  0.36093704  0.40170331    -0.07470
Cl2701     Cl  0.79007470  0.37872467  0.37221951    -0.50470
C2702       C  0.84640895  0.45361649  0.33273370     0.42060
H2703       H  0.78320706  0.27026112  0.33304981     0.06270
N2704       N  0.85991592  0.39337099  0.43302015    -0.47180
C2705       C  0.65242114  0.05006646  0.15801185     0.41910
N2706       N  0.65659191  0.09433720  0.14596518     0.00800
C2707       C  0.75612850  0.12182347  0.03692752    -0.07080
H2708       H  0.77938759  0.04038552  0.12391731     0.06290
C2709       C  0.75912006  0.12727116  0.19729607    -0.07430
Co2710     Co  0.68968537  0.09458730  0.08990060     0.74180
N2711       N  0.74625139  0.06926769  0.10768156    -0.26610
Co2712     Co  0.75676481  0.11498753  0.10804709     0.74070
C2713       C  0.78141265  0.10574494  0.19592907     0.42010
N2714       N  0.69694059  0.15288137  0.19574246     0.00410
N2715       N  0.76731618  0.11523101  0.15274764     0.00520
N2716       N  0.70942503  0.11080025  0.02955915    -0.47460
H2717       H  0.66967759  0.03328749  0.11568367     0.06280
N2718       N  0.72077091  0.06328240  0.09690486     0.00800
N2719       N  0.76425892  0.15941395  0.10809083     0.00540
C2720       C  0.77849202  0.20183269  0.09628956     0.42150
N2721       N  0.67217603  0.14060928  0.18933843    -0.26060
C2722       C  0.64235763  0.12883303  0.05939085    -0.06980
N2723       N  0.64638519  0.07757016  0.16657258    -0.47170
N2724       N  0.78211993  0.17332385  0.09053778    -0.47390
C2725       C  0.61926265  0.14759953  0.06953177     0.41920
N2726       N  0.71571671  0.11082415  0.05743681     0.00790
N2727       N  0.66579392  0.18550135  0.14722404    -0.26090
N2728       N  0.66732938  0.07894888  0.12415884    -0.26580
N2729       N  0.69215104  0.19551813  0.15158678     0.00430
H2730       H  0.62406247  0.20607319  0.15158980     0.06320
H2731       H  0.74941395  0.22324906  0.13086699     0.06360
N2732       N  0.74301092  0.11679142  0.06296683    -0.26630
N2733       N  0.75295290  0.13300044  0.17033683    -0.26240
N2734       N  0.64582106  0.13886444  0.10503617     0.00800
C2735       C  0.73678751  0.02016643  0.10597381     0.42190
C2736       C  0.65517705  0.14041333  0.21304282    -0.07490
N2737       N  0.75008764  0.17718147  0.12586864    -0.26240
H2738       H  0.74986647  0.13862641  0.21565438     0.06340
N2739       N  0.71509986  0.03529983  0.09487370    -0.47460
H2740       H  0.63233671  0.13565315  0.21302940     0.06330
C2741       C  0.66522070  0.23359711  0.15852156     0.42030
C2742       C  0.66523893  0.05120185  0.13009558    -0.06990
Co2743     Co  0.65946303  0.13924672  0.14653427     0.73820
N2744       N  0.69725771  0.16296030  0.22300804    -0.47180
C2745       C  0.73340776  0.11777881  0.01449428     0.42290
N2746       N  0.62303273  0.15334527  0.09758138    -0.47170
Co2747     Co  0.72410771  0.16488046  0.16060089     0.73890
C2748       C  0.75670606  0.20418436  0.11906065    -0.07500
C2749       C  0.75835234  0.04314626  0.11445702    -0.07060
N2750       N  0.65743860  0.12395470  0.08335256    -0.26590
N2751       N  0.78592433  0.09910602  0.16737141    -0.47350
H2752       H  0.77875068  0.12669017  0.03386731     0.06300
C2753       C  0.64728684  0.20800901  0.15077184    -0.07470
Cl2754     Cl  0.70755039  0.12875430  0.12612620    -0.50470
C2755       C  0.67176459  0.15527866  0.23556632     0.42060
H2756       H  0.64598491  0.11896921  0.03830902     0.06270
N2757       N  0.69261718  0.22351299  0.15919223    -0.47180
C2758       C  0.94206842  0.16980450  0.36485780     0.41910
N2759       N  0.90106692  0.15507808  0.35085978     0.00800
C2760       C  0.88157901  0.04306969  0.25032570    -0.07080
H2761       H  0.95953298  0.12488641  0.22330651     0.06290
C2762       C  0.87748361  0.20293092  0.24179580    -0.07430
Co2763     Co  0.90569236  0.09962560  0.31754070     0.74180
N2764       N  0.93172544  0.11525100  0.26013341    -0.26610
Co2765     Co  0.88715854  0.11399931  0.24835100     0.74070
C2766       C  0.89878157  0.19897063  0.21905929     0.42010
N2767       N  0.84776624  0.20375454  0.30582322     0.00410
N2768       N  0.88793519  0.15772763  0.23686776     0.00520
N2769       N  0.89252028  0.03748199  0.29720378    -0.47460
H2770       H  0.96507411  0.12904119  0.34764390     0.06280
N2771       N  0.93781710  0.10919864  0.28714630     0.00800
N2772       N  0.84341618  0.11381981  0.23845862     0.00540
C2773       C  0.80190838  0.10497113  0.22005045     0.42150
N2774       N  0.85727311  0.19751041  0.33164212    -0.26060
C2775       C  0.86716957  0.06788976  0.36277514    -0.06980
N2776       N  0.91399888  0.17647811  0.36435879    -0.47170
N2777       N  0.83015789  0.09795898  0.21820499    -0.47390
C2778       C  0.84523930  0.07802254  0.38334590     0.41920
N2779       N  0.89183974  0.06530085  0.29055538     0.00790
N2780       N  0.81258965  0.15370673  0.33537738    -0.26090
N2781       N  0.91905216  0.13439410  0.34257375    -0.26580
N2782       N  0.80406347  0.15905702  0.30886714     0.00430
H2783       H  0.79039676  0.15534406  0.37669291     0.06320
H2784       H  0.78084925  0.13919078  0.25033667     0.06360
N2785       N  0.88560634  0.06969457  0.26313657    -0.26630
N2786       N  0.87072647  0.17659671  0.25019014    -0.26240
N2787       N  0.85703886  0.11302147  0.35723346     0.00800
C2788       C  0.98012419  0.11608850  0.26792910     0.42190
C2789       C  0.85657912  0.22155688  0.34864089    -0.07490
N2790       N  0.82571536  0.13206846  0.25197600    -0.26240
H2791       H  0.86607774  0.22236996  0.24839440     0.06340
N2792       N  0.96580145  0.10941356  0.29245528    -0.47460
H2793       H  0.85937072  0.22181580  0.37185183     0.06330
C2794       C  0.76509854  0.16405463  0.33506389     0.42030
C2795       C  0.94569501  0.14154364  0.35122610    -0.06990
Co2796     Co  0.85756762  0.15430092  0.34402582     0.73820
N2797       N  0.83879714  0.23124496  0.30472683    -0.47180
C2798       C  0.88620062  0.02134467  0.27335715     0.42290
N2799       N  0.83982119  0.10565173  0.37820156    -0.47170
Co2800     Co  0.83696123  0.16770515  0.27817880     0.73890
C2801       C  0.79920869  0.12656610  0.24333161    -0.07500
C2802       C  0.95722424  0.11994047  0.24599050    -0.07060
N2803       N  0.87376734  0.09174059  0.34786528    -0.26590
N2804       N  0.90447322  0.17025052  0.21704118    -0.47350
H2805       H  0.87718072  0.03924286  0.22763829     0.06300
C2806       C  0.78949220  0.15568362  0.35333429    -0.07470
Cl2807     Cl  0.87159402  0.13377234  0.29696618    -0.50470
C2808       C  0.84457897  0.24443646  0.33077884     0.42060
H2809       H  0.87732129  0.04701903  0.36019732     0.06270
N2810       N  0.77621669  0.16623945  0.30785041    -0.47180
C2811       C  0.83784920  0.33002824  0.23563976     0.41910
N2812       N  0.85481452  0.32846340  0.19132329     0.00800
C2813       C  0.83198843  0.21925734  0.08706950    -0.07080
H2814       H  0.92380600  0.20226551  0.15568460     0.06290
C2815       C  0.97147678  0.28931262  0.10716692    -0.07430
Co2816     Co  0.83840643  0.27466511  0.15882231     0.74180
N2817       N  0.89005517  0.23399799  0.15001625    -0.26610
Co2818     Co  0.89152244  0.24619287  0.10667606     0.74070
C2819       C  0.98475079  0.26126179  0.11197934     0.42010
N2820       N  0.92191012  0.33868979  0.13266446     0.00410
N2821       N  0.93737542  0.25726518  0.10996430     0.00520
N2822       N  0.80188933  0.24256572  0.11770150    -0.47460
H2823       H  0.82239549  0.28264389  0.23120761     0.06280
N2824       N  0.87140182  0.24609118  0.16844536     0.00800
N2825       N  0.89160281  0.26238596  0.06288468     0.00540
C2826       C  0.88936284  0.27098268  0.01638622     0.42150
N2827       N  0.90238317  0.34734512  0.15187951    -0.26060
C2828       C  0.77800563  0.30466106  0.15782473    -0.06980
N2829       N  0.85007590  0.34587629  0.21424208    -0.47170
N2830       N  0.88454918  0.25041222  0.03706549    -0.47390
C2831       C  0.76812987  0.33484240  0.15767175     0.41920
N2832       N  0.82866215  0.25003754  0.12259016     0.00790
N2833       N  0.86196307  0.35530565  0.10524418    -0.26090
N2834       N  0.84615604  0.30169501  0.19570753    -0.26580
N2835       N  0.88162322  0.34534564  0.08676300     0.00430
H2836       H  0.82819389  0.38682234  0.10100421     0.06320
H2837       H  0.90554756  0.31759920  0.02416852     0.06360
N2838       N  0.84713723  0.23727974  0.10455056    -0.26630
N2839       N  0.94303355  0.28487974  0.10625123    -0.26240
N2840       N  0.81361973  0.33246291  0.14510836     0.00800
C2841       C  0.89660760  0.21829550  0.19470193     0.42190
C2842       C  0.91587127  0.35701001  0.17523304    -0.07490
N2843       N  0.89990388  0.28957855  0.06035829    -0.26240
H2844       H  0.98194428  0.30992823  0.10354263     0.06340
N2845       N  0.87502459  0.23748390  0.19495576    -0.47460
H2846       H  0.90568434  0.36532117  0.19476731     0.06330
C2847       C  0.85874823  0.37603301  0.06294075     0.42030
C2848       C  0.83489350  0.30053634  0.22289468    -0.06990
Co2849     Co  0.85858798  0.34175948  0.14782625     0.73820
N2850       N  0.94852794  0.34324296  0.14135659    -0.47180
C2851       C  0.80176114  0.22304272  0.09602766     0.42290
N2852       N  0.79178078  0.35074116  0.15013652    -0.47170
Co2853     Co  0.91166967  0.31518785  0.09642146     0.73890
C2854       C  0.89949471  0.29665186  0.03240713    -0.07500
C2855       C  0.90663468  0.21543048  0.16471781    -0.07060
N2856       N  0.80610530  0.30533465  0.14991724    -0.26590
N2857       N  0.96195311  0.24194451  0.11326308    -0.47350
H2858       H  0.84099459  0.20498450  0.07060115     0.06300
C2859       C  0.84620203  0.37497256  0.09179680    -0.07470
Cl2860     Cl  0.87481578  0.29444053  0.12739694    -0.50470
C2861       C  0.94620803  0.35405314  0.16830317     0.42060
H2862       H  0.76711690  0.28615318  0.16698182     0.06270
N2863       N  0.88001363  0.35682830  0.06098818    -0.47180
O2864       O  0.75732939  0.04318341  0.53093754    -0.80690
O2865       O  0.77286311  0.94338050  0.45824595    -0.80710
O2866       O  0.77935096  0.97406284  0.53827822    -0.80720
O2867       O  0.76525330  0.01480363  0.44563053    -0.80660
O2868       O  0.77044960  0.93397291  0.51281886    -0.80780
O2869       O  0.74407798  0.04914575  0.47275258    -0.80700
O2870       O  0.77832954  0.98832099  0.44640024    -0.80690
O2871       O  0.77632334  0.00097893  0.54135506    -0.80720
C2872       C  0.77719896  0.02822455  0.54247670     1.09000
C2873       C  0.78935521  0.96391151  0.45116843     1.08890
C2874       C  0.78777219  0.94993985  0.52707369     1.09020
C2875       C  0.76054720  0.04123963  0.45186225     1.08900
O2876       O  0.69264585  0.01014210  0.48436234    -0.80690
O2877       O  0.70781623  0.94807908  0.51166310    -0.80760
O2878       O  0.72917850  0.99991840  0.57463827    -0.80700
O2879       O  0.73071837  0.97119337  0.41591288    -0.80680
O2880       O  0.70927199  0.95424260  0.45543260    -0.80730
O2881       O  0.70184666  0.00926786  0.53809319    -0.80700
O2882       O  0.70969138  0.01641261  0.44267391    -0.80660
O2883       O  0.73326437  0.94887200  0.55028104    -0.80730
Co2884     Co  0.72485939  0.02666937  0.50547912     1.51530
Co2885     Co  0.73980506  0.94688668  0.48543932     1.51690
Co2886     Co  0.73870575  0.98763068  0.53480840     1.51570
Co2887     Co  0.73725859  0.98571979  0.45441889     1.51470
O2888       O  0.74649802  0.98964780  0.49454614    -1.42620
C2889       C  0.69017379  0.02150218  0.46072552     1.08930
C2890       C  0.71207639  0.93965872  0.53662323     1.09020
C2891       C  0.70802330  0.01373902  0.56441452     1.08960
C2892       C  0.71404854  0.95299589  0.42808349     1.08930
C2893       C  0.82259153  0.07781797  0.42937447    -0.09710
C2894       C  0.82585387  0.06355471  0.40236784     0.06490
C2895       C  0.80217017  0.04973276  0.38947747    -0.03470
C2896       C  0.77586316  0.05017764  0.40375405    -0.07920
C2897       C  0.77387655  0.06121500  0.43222324     0.05610
C2898       C  0.79597966  0.07828946  0.44323587    -0.02950
Br2899     Br  0.78795777  0.10664755  0.47276352    -0.02640
H2900       H  0.83950799  0.09197884  0.43751124     0.09520
H2901       H  0.75816462  0.03767926  0.39466501     0.07540
Br2902     Br  0.80409280  0.03177746  0.35173723    -0.03070
C2903       C  0.64424247  0.08033804  0.43461920    -0.09710
C2904       C  0.65650055  0.10323048  0.45081221     0.06490
C2905       C  0.67506204  0.09832041  0.47359257    -0.03470
C2906       C  0.68271469  0.07012345  0.47901461    -0.07920
C2907       C  0.67417825  0.04776469  0.45983056     0.05610
C2908       C  0.65394296  0.05243396  0.43835646    -0.02950
Br2909     Br  0.64123304  0.02209823  0.41255082    -0.02640
H2910       H  0.62973636  0.08466280  0.41692752     0.09520
H2911       H  0.69783485  0.06622582  0.49620558     0.07540
Br2912     Br  0.69429640  0.12958045  0.49356500    -0.03070
C2913       C  0.83716323  0.98202199  0.43680218    -0.09710
C2914       C  0.82018388  0.95934976  0.44786961     0.06490
C2915       C  0.83336768  0.93220820  0.45304735    -0.03470
C2916       C  0.86057564  0.92727904  0.44130933    -0.07920
C2917       C  0.86953763  0.94591215  0.41961580     0.05610
C2918       C  0.86330581  0.97519628  0.42357726    -0.02950
Br2919     Br  0.88433577  0.00405291  0.40316297    -0.02640
H2920       H  0.82900046  0.00390240  0.43547980     0.09520
H2921       H  0.86907029  0.90544729  0.44154903     0.07540
Br2922     Br  0.81457119  0.89899537  0.46930504    -0.03070
C2923       C  0.71458543  0.88796039  0.44630944    -0.09710
C2924       C  0.68505681  0.88464885  0.45325780     0.06490
C2925       C  0.66572118  0.90600546  0.44346395    -0.03470
C2926       C  0.67409902  0.92412850  0.42092547    -0.07920
C2927       C  0.70349109  0.92711054  0.41438548     0.05610
C2928       C  0.72207773  0.90489535  0.42251296    -0.02950
Br2929     Br  0.75981511  0.90184402  0.40567079    -0.02640
H2930       H  0.72974524  0.87160623  0.45296923     0.09520
H2931       H  0.65929911  0.94082364  0.41427068     0.07540
Br2932     Br  0.62732146  0.90991108  0.45873831    -0.03070
C2933       C  0.85620844  0.95645535  0.56355449    -0.09710
C2934       C  0.85499469  0.92947909  0.57654738     0.06490
C2935       C  0.84272280  0.90588334  0.56094116    -0.03470
C2936       C  0.82142457  0.91179644  0.54102447    -0.07920
C2937       C  0.81694506  0.94046787  0.53338228     0.05610
C2938       C  0.83823308  0.96126211  0.54017210    -0.02950
Br2939     Br  0.84267835  0.99560426  0.51826209    -0.02640
H2940       H  0.86823136  0.97425873  0.57320970     0.09520
H2941       H  0.80679509  0.89474275  0.53412176     0.07540
Br2942     Br  0.84950286  0.86613443  0.57059837    -0.03070
C2943       C  0.66550669  0.87948167  0.52967121    -0.09710
C2944       C  0.64066640  0.89148917  0.54186668     0.06490
C2945       C  0.63968426  0.92058738  0.55013543    -0.03470
C2946       C  0.66542049  0.93482888  0.55487704    -0.07920
C2947       C  0.69128906  0.92093789  0.54763645     0.05610
C2948       C  0.69145136  0.89322697  0.53482449    -0.02950
Br2949     Br  0.72661584  0.87473989  0.52253525    -0.02640
H2950       H  0.66558536  0.85717475  0.52192931     0.09520
H2951       H  0.66521026  0.95733096  0.56203045     0.07540
Br2952     Br  0.60430371  0.93801410  0.56301806    -0.03070
C2953       C  0.84336603  0.05803019  0.57669381    -0.09710
C2954       C  0.83923563  0.04650523  0.60422328     0.06490
C2955       C  0.81697359  0.02748948  0.61013649    -0.03470
C2956       C  0.79602543  0.02397807  0.58977235    -0.07920
C2957       C  0.79750636  0.03869012  0.56327808     0.05610
C2958       C  0.82213592  0.05458701  0.55608151    -0.02950
Br2959     Br  0.82874111  0.07077134  0.51904948    -0.02640
H2960       H  0.86124330  0.07263243  0.57257412     0.09520
H2961       H  0.77818109  0.00972640  0.59485585     0.07540
Br2962     Br  0.81154219  0.01052689  0.64750488    -0.03070
C2963       C  0.66655286  0.04439121  0.56869785    -0.09710
C2964       C  0.69508308  0.03939300  0.57758499     0.06490
C2965       C  0.71386411  0.06300959  0.57897061    -0.03470
C2966       C  0.70776072  0.08777065  0.56364983    -0.07920
C2967       C  0.67905129  0.09375866  0.55645762     0.05610
C2968       C  0.65837722  0.07137992  0.55824187    -0.02950
Br2969     Br  0.61915022  0.07620690  0.54644242    -0.02640
H2970       H  0.65156277  0.02638903  0.56695486     0.09520
H2971       H  0.72337207  0.10533676  0.56446622     0.07540
Br2972     Br  0.74377768  0.06510531  0.60696045    -0.03070
C2973       C  0.51256839  0.67019801  0.92422653    -0.09710
C2974       C  0.51465558  0.69810284  0.91223315     0.06490
C2975       C  0.52869624  0.70215153  0.88544203    -0.03470
C2976       C  0.54344036  0.67915856  0.87345385    -0.07920
C2977       C  0.54511649  0.65325103  0.88841599     0.05610
C2978       C  0.52793644  0.64758164  0.91227055    -0.02950
Br2979     Br  0.52797882  0.61072333  0.93088736    -0.02640
H2980       H  0.50088901  0.66633048  0.94416571     0.09520
H2981       H  0.55622551  0.68239813  0.85402169     0.07540
Br2982     Br  0.53259086  0.73829895  0.86554990    -0.03070
C2983       C  0.60689041  0.77471847  0.96093303    -0.09710
C2984       C  0.58188205  0.79128827  0.96456830     0.06490
C2985       C  0.58373419  0.81942472  0.97743327    -0.03470
C2986       C  0.61059379  0.83152900  0.98221500    -0.07920
C2987       C  0.63464094  0.81783998  0.97043962     0.05610
C2988       C  0.63363854  0.78793845  0.96453379    -0.02950
Br2989     Br  0.66762702  0.76730829  0.95281088    -0.02640
H2990       H  0.60574875  0.75256678  0.95291155     0.09520
H2991       H  0.61184373  0.85410752  0.98895146     0.07540
Br2992     Br  0.55153540  0.84447966  0.98637154    -0.03070
C2993       C  0.45555710  0.74180713  0.87224405    -0.09710
C2994       C  0.44853146  0.73196715  0.90003173     0.06490
C2995       C  0.44926643  0.70182491  0.90545160    -0.03470
C2996       C  0.45953702  0.68315995  0.88432405    -0.07920
C2997       C  0.46013686  0.69216499  0.85586049     0.05610
C2998       C  0.46076177  0.72183947  0.84988602    -0.02950
Br2999     Br  0.46361673  0.73497856  0.81090820    -0.02640
H3000       H  0.45601301  0.76474445  0.86771846     0.09520
H3001       H  0.46005456  0.66020375  0.88905137     0.07540
Br3002     Br  0.43775835  0.68311089  0.94046878    -0.03070
C3003       C  0.42710764  0.85287405  0.99623474    -0.09710
C3004       C  0.45078653  0.85388004  0.97728051     0.06490
C3005       C  0.44726379  0.87053680  0.95259342    -0.03470
C3006       C  0.42093119  0.86736326  0.93874020    -0.07920
C3007       C  0.39840732  0.85329051  0.95353827     0.05610
C3008       C  0.40002965  0.84996735  0.98356845    -0.02950
Br3009     Br  0.36711459  0.83830575  0.00585944    -0.02640
H3010       H  0.43001800  0.84598893  0.01815500     0.09520
H3011       H  0.41842525  0.87450398  0.91668171     0.07540
Br3012     Br  0.47974716  0.88513862  0.93153778    -0.03070
C3013       C  0.47408510  0.68831222  0.06205848    -0.09710
C3014       C  0.45589091  0.69249119  0.03811188     0.06490
C3015       C  0.43277604  0.67308134  0.03346218    -0.03470
C3016       C  0.42823040  0.65087942  0.05296502    -0.07920
C3017       C  0.44487731  0.64923622  0.07801968     0.05610
C3018       C  0.46899561  0.66676794  0.08171857    -0.02950
Br3019     Br  0.49024311  0.66789791  0.11733344    -0.02640
H3020       H  0.49037429  0.70394459  0.06796513     0.09520
H3021       H  0.40889119  0.63773827  0.05099454     0.07540
Br3022     Br  0.40320867  0.67822707  0.00533428    -0.03070
C3023       C  0.39468078  0.82737560  0.06967105    -0.09710
C3024       C  0.41042973  0.85320561  0.07367878     0.06490
C3025       C  0.44024158  0.85253197  0.07790670    -0.03470
C3026       C  0.45440007  0.82638094  0.07451648    -0.07920
C3027       C  0.43862910  0.80163008  0.06661071     0.05610
C3028       C  0.40866901  0.80133451  0.06767172    -0.02950
Br3029     Br  0.38677525  0.76655246  0.06058937    -0.02640
H3030       H  0.37129874  0.82737679  0.06985039     0.09520
H3031       H  0.47776982  0.82620114  0.07408297     0.07540
Br3032     Br  0.46201174  0.88666094  0.08775003    -0.03070
C3033       C  0.54764415  0.70624701  0.06783416    -0.09710
C3034       C  0.54389280  0.69133508  0.04151414     0.06490
C3035       C  0.54660089  0.66115173  0.03989065    -0.03470
C3036       C  0.55452994  0.64646363  0.06472822    -0.07920
C3037       C  0.55890162  0.66203029  0.09063322     0.05610
C3038       C  0.55429651  0.69184437  0.09243449    -0.02950
Br3039     Br  0.55797225  0.71422445  0.12781541    -0.02640
H3040       H  0.54491451  0.72938966  0.06959948     0.09520
H3041       H  0.55879756  0.62342401  0.06349772     0.07540
Br3042     Br  0.53951078  0.63965269  0.00497062    -0.03070
C3043       C  0.56718660  0.82004980  0.05168785    -0.09710
C3044       C  0.57110399  0.79095174  0.04437304     0.06490
C3045       C  0.59858722  0.77950793  0.03885575    -0.03470
C3046       C  0.62223002  0.79749889  0.04162032    -0.07920
C3047       C  0.61830977  0.82653145  0.04937004     0.05610
C3048       C  0.59063426  0.83828571  0.05320712    -0.02950
Br3049     Br  0.58377803  0.87814667  0.06379488    -0.02640
H3050       H  0.54573819  0.82891849  0.05471179     0.09520
H3051       H  0.64370837  0.78842594  0.03997305     0.07540
Br3052     Br  0.60507552  0.73946421  0.02932371    -0.03070
C3053       C  0.88902010  0.50110438  0.69889526    -0.09710
C3054       C  0.91783057  0.49917578  0.68955273     0.06490
C3055       C  0.92638287  0.51188974  0.66313175    -0.03470
C3056       C  0.90776172  0.53062238  0.64997624    -0.07920
C3057       C  0.88097987  0.53601432  0.66236250     0.05610
C3058       C  0.87038549  0.51963918  0.68521551    -0.02950
Br3059     Br  0.83155653  0.52344731  0.69925510    -0.02640
H3060       H  0.88168423  0.49034857  0.71826555     0.09520
H3061       H  0.91477412  0.54230742  0.63099301     0.07540
Br3062     Br  0.96355742  0.50789952  0.64493818    -0.03070
C3063       C  0.94085023  0.58525768  0.77652359    -0.09710
C3064       C  0.94019691  0.56033940  0.79369444     0.06490
C3065       C  0.94459832  0.56322074  0.82385773    -0.03470
C3066       C  0.95007354  0.59053306  0.83583680    -0.07920
C3067       C  0.95149395  0.61496131  0.81830936     0.05610
C3068       C  0.94765468  0.61205706  0.78839187    -0.02950
Br3069     Br  0.94752619  0.64519686  0.76366440    -0.02640
H3070       H  0.93763106  0.58386844  0.75335865     0.09520
H3071       H  0.95114229  0.59304023  0.85916670     0.07540
Br3072     Br  0.94297490  0.53155611  0.85028393    -0.03070
C3073       C  0.96334037  0.43266537  0.66928752    -0.09710
C3074       C  0.95304673  0.42933485  0.69777936     0.06490
C3075       C  0.92296121  0.42809176  0.70289699    -0.03470
C3076       C  0.90445196  0.43483873  0.68080263    -0.07920
C3077       C  0.91447817  0.43564785  0.65219610     0.05610
C3078       C  0.94411659  0.43477656  0.64640771    -0.02950
Br3079     Br  0.95868331  0.43470294  0.60747162    -0.02640
H3080       H  0.98624982  0.43384438  0.66480677     0.09520
H3081       H  0.88143037  0.43416665  0.68514035     0.07540
Br3082     Br  0.90473268  0.41826126  0.73908618    -0.03070
C3083       C  0.99281027  0.43220153  0.85137821    -0.09710
C3084       C  0.00112210  0.42008705  0.82464526     0.06490
C3085       C  0.99692236  0.39028707  0.81973531    -0.03470
C3086       C  0.97336880  0.37779557  0.83316808    -0.07920
C3087       C  0.95796965  0.39426033  0.85356321     0.05610
C3088       C  0.96972752  0.41962579  0.86562323    -0.02950
Br3089     Br  0.95216231  0.43973600  0.89778394    -0.02640
H3090       H  0.99872655  0.45430228  0.85700376     0.09520
H3091       H  0.96592087  0.35647956  0.82636157     0.07540
Br3092     Br  0.01575958  0.36910742  0.78894860    -0.03070
C3093       C  0.06008288  0.45201110  0.68023387    -0.09710
C3094       C  0.07713673  0.45731803  0.70464399     0.06490
C3095       C  0.10521044  0.46833336  0.70164474    -0.03470
C3096       C  0.11685244  0.47038055  0.67410123    -0.07920
C3097       C  0.10145174  0.45892401  0.65069458     0.05610
C3098       C  0.07197912  0.45395016  0.65296683    -0.02950
Br3099     Br  0.04978607  0.44157814  0.62014691    -0.02640
H3100       H  0.03770169  0.44579414  0.68226247     0.09520
H3101       H  0.13964877  0.47516988  0.67176529     0.07540
Br3102     Br  0.12982318  0.47722342  0.73359179    -0.03070
C3103       C  0.06445182  0.47476989  0.85343326    -0.09710
C3104       C  0.07478146  0.47052167  0.82491699     0.06490
C3105       C  0.08270630  0.44230888  0.81643758    -0.03470
C3106       C  0.06969132  0.41958898  0.83009552    -0.07920
C3107       C  0.06436310  0.42270488  0.85962607     0.05610
C3108       C  0.06153683  0.45076257  0.87168613    -0.02950
Br3109     Br  0.05235875  0.45630961  0.91177392    -0.02640
H3110       H  0.05764018  0.49603461  0.86088581     0.09520
H3111       H  0.07199621  0.39810179  0.82041529     0.07540
Br3112     Br  0.10435933  0.43289541  0.78254767    -0.03070
C3113       C  0.09282799  0.53882874  0.72063889    -0.09710
C3114       C  0.06801552  0.53453752  0.70359311     0.06490
C3115       C  0.07072118  0.53122067  0.67340747    -0.03470
C3116       C  0.09759753  0.53515494  0.66080097    -0.07920
C3117       C  0.12118771  0.54300527  0.67799810     0.05610
C3118       C  0.11936706  0.54276478  0.70801315    -0.02950
Br3119     Br  0.15182670  0.55183162  0.73238544    -0.02640
H3120       H  0.09180500  0.54000372  0.74404007     0.09520
H3121       H  0.09925513  0.53550936  0.63741182     0.07540
Br3122     Br  0.03903104  0.52466085  0.64779408    -0.03070
C3123       C  0.01429742  0.58544953  0.82520511    -0.09710
C3124       C  0.01068681  0.58424599  0.79527111     0.06490
C3125       C  0.01661196  0.60889987  0.77819832    -0.03470
C3126       C  0.02661262  0.63377503  0.79157149    -0.07920
C3127       C  0.03206027  0.63399604  0.82100170     0.05610
C3128       C  0.02447699  0.61035751  0.83840462    -0.02950
Br3129     Br  0.03092756  0.60864837  0.87942174    -0.02640
H3130       H  0.00980819  0.56672008  0.83835629     0.09520
H3131       H  0.03320173  0.65197845  0.77849302     0.07540
Br3132     Br  0.01608898  0.61018564  0.73648988    -0.03070
C3133       C  0.93818334  0.64671496  0.41709129    -0.09710
C3134       C  0.91666469  0.64089753  0.43770135     0.06490
C3135       C  0.92451973  0.63845755  0.46685461    -0.03470
C3136       C  0.95097722  0.64995758  0.47563651    -0.07920
C3137       C  0.96943372  0.66276522  0.45527603     0.05610
C3138       C  0.96508180  0.65671878  0.42576483    -0.02950
Br3139     Br  0.99193272  0.66807620  0.39621877    -0.02640
H3140       H  0.93332344  0.64614361  0.39426320     0.09520
H3141       H  0.95521521  0.65261550  0.49850861     0.07540
Br3142     Br  0.89949104  0.62248599  0.49555001    -0.03070
C3143       C  0.94837943  0.80947148  0.42772065    -0.09710
C3144       C  0.95081942  0.78188083  0.41489651     0.06490
C3145       C  0.96065283  0.77871930  0.38627744    -0.03470
C3146       C  0.96677390  0.80321860  0.37043484    -0.07920
C3147       C  0.96048971  0.83048483  0.38231008     0.05610
C3148       C  0.95512277  0.83378387  0.41197046    -0.02950
Br3149     Br  0.94911089  0.87128427  0.42947952    -0.02640
H3150       H  0.94336901  0.81202497  0.45058388     0.09520
H3151       H  0.97155180  0.80081956  0.34753310     0.07540
Br3152     Br  0.96623607  0.74129104  0.36860323    -0.03070
C3153       C  0.90465482  0.71957677  0.53032082    -0.09710
C3154       C  0.93100249  0.70927118  0.54056246     0.06490
C3155       C  0.93391876  0.68134815  0.55091374    -0.03470
C3156       C  0.90957442  0.66436029  0.55256805    -0.07920
C3157       C  0.88290648  0.67565270  0.54421627     0.05610
C3158       C  0.88038261  0.70283707  0.53228184    -0.02950
Br3159     Br  0.84396616  0.71877093  0.52134083    -0.02640
H3160       H  0.90300990  0.74030182  0.51988778     0.09520
H3161       H  0.91086498  0.64336564  0.56265815     0.07540
Br3162     Br  0.97028456  0.66597009  0.56262594    -0.03070
C3163       C  0.92908497  0.79137803  0.55964077    -0.09710
C3164       C  0.93945547  0.80963205  0.53813600     0.06490
C3165       C  0.94745329  0.83821837  0.54558401    -0.03470
C3166       C  0.94708027  0.84717412  0.57456687    -0.07920
C3167       C  0.94000356  0.82735946  0.59615884     0.05610
C3168       C  0.93189132  0.79897427  0.58847124    -0.02950
Br3169     Br  0.92340795  0.76996887  0.61682140    -0.02640
H3170       H  0.92177662  0.76985472  0.55449420     0.09520
H3171       H  0.95100102  0.86972205  0.58004838     0.07540
Br3172     Br  0.95808607  0.86551685  0.51656478    -0.03070
C3173       C  0.10814555  0.65132394  0.46960763    -0.09710
C3174       C  0.13579583  0.66297768  0.47036611     0.06490
C3175       C  0.14234535  0.68767487  0.48677116    -0.03470
C3176       C  0.11972429  0.70391606  0.49770709    -0.07920
C3177       C  0.09159196  0.69590810  0.49015235     0.05610
C3178       C  0.08551415  0.66863771  0.47770545    -0.02950
Br3179     Br  0.04790104  0.65545574  0.46643205    -0.02640
H3180       H  0.10370739  0.63158888  0.45732374     0.09520
H3181       H  0.12419634  0.72473858  0.50792295     0.07540
Br3182     Br  0.18093396  0.70236083  0.48951902    -0.03070
C3183       C  0.05312838  0.82973383  0.43339389    -0.09710
C3184       C  0.05838812  0.79992912  0.43182708     0.06490
C3185       C  0.05118162  0.78420219  0.40650939    -0.03470
C3186       C  0.03973092  0.79847816  0.38314909    -0.07920
C3187       C  0.03996222  0.82867221  0.38315052     0.05610
C3188       C  0.04300979  0.84411615  0.40942799    -0.02950
Br3189     Br  0.03841432  0.88536383  0.41237776    -0.02640
H3190       H  0.05537463  0.84151302  0.45376767     0.09520
H3191       H  0.03638331  0.78644670  0.36309840     0.07540
Br3192     Br  0.05504190  0.74291828  0.40338152    -0.03070
C3193       C  0.04743879  0.67838857  0.54743473    -0.09710
C3194       C  0.04376850  0.70095943  0.56816594     0.06490
C3195       C  0.04616283  0.69452287  0.59750867    -0.03470
C3196       C  0.05869922  0.66818762  0.60477617    -0.07920
C3197       C  0.07229621  0.65137398  0.58282826     0.05610
C3198       C  0.06115189  0.65280238  0.55520947    -0.02950
Br3199     Br  0.06782118  0.62144131  0.52852810    -0.02640
H3200       H  0.04126612  0.68141542  0.52522681     0.09520
H3201       H  0.06375442  0.66459795  0.62726750     0.07540
Br3202     Br  0.03725982  0.72223921  0.62752395    -0.03070
C3203       C  0.03751896  0.86033012  0.54619268    -0.09710
C3204       C  0.06069471  0.84305808  0.53639101     0.06490
C3205       C  0.08885018  0.85389564  0.53948786    -0.03470
C3206       C  0.09330902  0.87529203  0.56052673    -0.07920
C3207       C  0.07020316  0.88249980  0.57909743     0.05610
C3208       C  0.04229290  0.88055346  0.56814692    -0.02950
Br3209     Br  0.00971262  0.89688254  0.58809625    -0.02640
H3210       H  0.01549077  0.85446023  0.54125431     0.09520
H3211       H  0.11524332  0.88016435  0.56694184     0.07540
Br3212     Br  0.12170894  0.83749468  0.51992668    -0.03070
C3213       C  0.70934231  0.50564107  0.87405376    -0.09710
C3214       C  0.69495879  0.50303601  0.90075532     0.06490
C3215       C  0.66640246  0.49326880  0.90194267    -0.03470
C3216       C  0.65644817  0.47760117  0.87865972    -0.07920
C3217       C  0.67470012  0.47290602  0.85481598     0.05610
C3218       C  0.69960269  0.48927417  0.85081655    -0.02950
Br3219     Br  0.72259942  0.48616925  0.81629921    -0.02640
H3220       H  0.73074343  0.51502681  0.87274252     0.09520
H3221       H  0.63607243  0.46617794  0.88060963     0.07540
Br3222     Br  0.64370232  0.49294515  0.93684776    -0.03070
C3223       C  0.83703152  0.42556498  0.94636061    -0.09710
C3224       C  0.81798627  0.40940227  0.92886098     0.06490
C3225       C  0.80336143  0.42441540  0.90647546    -0.03470
C3226       C  0.81085270  0.45311492  0.90126594    -0.07920
C3227       C  0.81770087  0.46916147  0.92600216     0.05610
C3228       C  0.83710148  0.45579857  0.94477662    -0.02950
Br3229     Br  0.86859524  0.47669617  0.96126021    -0.02640
H3230       H  0.85211511  0.41497420  0.96045024     0.09520
H3231       H  0.79904197  0.46406720  0.88452131     0.07540
Br3232     Br  0.76622643  0.41294985  0.89109014    -0.03070
C3233       C  0.70735340  0.59262962  0.94269438    -0.09710
C3234       C  0.69086096  0.58241711  0.96577811     0.06490
C3235       C  0.66287710  0.57198681  0.95939981    -0.03470
C3236       C  0.65506091  0.56527991  0.93064328    -0.07920
C3237       C  0.67549572  0.56784894  0.90831987     0.05610
C3238       C  0.70233302  0.58125687  0.91503535    -0.02950
Br3239     Br  0.73407457  0.58262751  0.88789913    -0.02640
H3240       H  0.72849935  0.60178378  0.94702227     0.09520
H3241       H  0.63350384  0.55756999  0.92593371     0.07540
Br3242     Br  0.63667463  0.56293928  0.99002292    -0.03070
C3243       C  0.82879250  0.56036280  0.94565996    -0.09710
C3244       C  0.80816574  0.57234409  0.96439417     0.06490
C3245       C  0.81476501  0.59593763  0.98266522    -0.03470
C3246       C  0.84050673  0.61048697  0.97818259    -0.07920
C3247       C  0.85786920  0.60199000  0.95478673     0.05610
C3248       C  0.85456795  0.57468931  0.94171540    -0.02950
Br3249     Br  0.88084890  0.56077206  0.91245408    -0.02640
H3250       H  0.82435098  0.54077769  0.93320593     0.09520
H3251       H  0.84389601  0.63126951  0.98891046     0.07540
Br3252     Br  0.78762500  0.61159845  0.01023071    -0.03070
C3253       C  0.67731526  0.40599793  0.03780676    -0.09710
C3254       C  0.67849479  0.43439602  0.02835500     0.06490
C3255       C  0.65728347  0.45422644  0.03763118    -0.03470
C3256       C  0.64219772  0.44881128  0.06308526    -0.07920
C3257       C  0.64726608  0.42291608  0.07715109     0.05610
C3258       C  0.65970603  0.39958637  0.06120552    -0.02950
Br3259     Br  0.65557167  0.35960597  0.07167682    -0.02640
H3260       H  0.69143434  0.38959218  0.02857941     0.09520
H3261       H  0.62981695  0.46595493  0.07346045     0.07540
Br3262     Br  0.64879103  0.48844180  0.01679415    -0.03070
C3263       C  0.82442960  0.42900005  0.01682867    -0.09710
C3264       C  0.80196586  0.41165954  0.00607481     0.06490
C3265       C  0.80295601  0.38149262  0.00771575    -0.03470
C3266       C  0.82475866  0.36917521  0.02379654    -0.07920
C3267       C  0.84460078  0.38716565  0.03818276     0.05610
C3268       C  0.84575041  0.41686000  0.03326983    -0.02950
Br3269     Br  0.87311528  0.44191774  0.05221638    -0.02640
H3270       H  0.82355176  0.45237186  0.01515064     0.09520
H3271       H  0.82430746  0.34609813  0.02773354     0.07540
Br3272     Br  0.77278384  0.35729604  0.99262339    -0.03070
C3273       C  0.68794972  0.50041574  0.09997979    -0.09710
C3274       C  0.70292176  0.51736790  0.07994011     0.06490
C3275       C  0.71748247  0.54251136  0.08992212    -0.03470
C3276       C  0.71712987  0.54935407  0.11895072    -0.07920
C3277       C  0.69440705  0.53882679  0.13542972     0.05610
C3278       C  0.68228670  0.51191322  0.12759479    -0.02950
Br3279     Br  0.65877176  0.49078783  0.15387905    -0.02640
H3280       H  0.67974493  0.47932514  0.09390651     0.09520
H3281       H  0.72932014  0.56810399  0.12616698     0.07540
Br3282     Br  0.73328248  0.57241994  0.06644662    -0.03070
C3283       C  0.80597217  0.54210648  0.09257616    -0.09710
C3284       C  0.80819721  0.52858677  0.06568485     0.06490
C3285       C  0.82802894  0.53944341  0.04525764    -0.03470
C3286       C  0.84050159  0.56675094  0.04917190    -0.07920
C3287       C  0.83478857  0.58254137  0.07442842     0.05610
C3288       C  0.82037377  0.56822097  0.09772365    -0.02950
Br3289     Br  0.81931674  0.58180549  0.13729777    -0.02640
H3290       H  0.79152109  0.53347143  0.10884635     0.09520
H3291       H  0.85292701  0.57627063  0.03180956     0.07540
Br3292     Br  0.83505352  0.51936735  0.00977548    -0.03070
C3293       C  0.43440081  0.89427684  0.73646759    -0.09710
C3294       C  0.42812957  0.91704509  0.71790869     0.06490
C3295       C  0.43398118  0.91420177  0.68822705    -0.03470
C3296       C  0.45025354  0.89113660  0.67834327    -0.07920
C3297       C  0.45282461  0.86662742  0.69556633     0.05610
C3298       C  0.44668024  0.86890778  0.72534079    -0.02950
Br3299     Br  0.44725277  0.83517407  0.74892267    -0.02640
H3300       H  0.43088069  0.89669757  0.75958401     0.09520
H3301       H  0.45392640  0.88957317  0.65533113     0.07540
Br3302     Br  0.42460214  0.94427660  0.66153070    -0.03070
C3303       C  0.44287403  0.88964434  0.84340099    -0.09710
C3304       C  0.42854856  0.91326214  0.85687269     0.06490
C3305       C  0.44464023  0.93827275  0.86244760    -0.03470
C3306       C  0.46861476  0.94359604  0.84468220    -0.07920
C3307       C  0.47541140  0.92355794  0.82221968     0.05610
C3308       C  0.46717136  0.89488220  0.82630859    -0.02950
Br3309     Br  0.48597320  0.86403547  0.80588767    -0.02640
H3310       H  0.43333988  0.86821242  0.84297341     0.09520
H3311       H  0.47846305  0.96486831  0.84511567     0.07540
Br3312     Br  0.43344272  0.96475439  0.89273184    -0.03070
C3313       C  0.51463410  0.95173491  0.63599636    -0.09710
C3314       C  0.53405277  0.97017283  0.65052957     0.06490
C3315       C  0.56348122  0.96405733  0.64780513    -0.03470
C3316       C  0.57153333  0.93535894  0.64300770    -0.07920
C3317       C  0.55038892  0.91398120  0.63761944     0.05610
C3318       C  0.52259272  0.92310455  0.62977624    -0.02950
Br3319     Br  0.49421865  0.89796074  0.61294889    -0.02640
H3320       H  0.49206203  0.95751338  0.63500343     0.09520
H3321       H  0.59390048  0.92952868  0.64593190     0.07540
Br3322     Br  0.59235591  0.99162310  0.65944096    -0.03070
C3323       C  0.62452836  0.95560993  0.79254825    -0.09710
C3324       C  0.61254870  0.94784042  0.81935476     0.06490
C3325       C  0.58310972  0.94136522  0.82161671    -0.03470
C3326       C  0.56615604  0.94220906  0.79731336    -0.07920
C3327       C  0.57793540  0.94940235  0.77034336     0.05610
C3328       C  0.60722917  0.95659297  0.76789613    -0.02950
Br3329     Br  0.62441850  0.96582533  0.73139505    -0.02640
H3330       H  0.64759363  0.95874744  0.79038992     0.09520
H3331       H  0.54335430  0.93751683  0.79969130     0.07540
Br3332     Br  0.56581014  0.92720045  0.85671620    -0.03070
C3333       C  0.45536011  0.05090334  0.68160046    -0.09710
C3334       C  0.45684943  0.05778369  0.71125893     0.06490
C3335       C  0.46243768  0.08680727  0.72025821    -0.03470
C3336       C  0.46518176  0.10799839  0.69963657    -0.07920
C3337       C  0.45884622  0.10161095  0.67085258     0.05610
C3338       C  0.45597146  0.07279764  0.66134430    -0.02950
Br3339     Br  0.44770014  0.06320270  0.62173505    -0.02640
H3340       H  0.45218152  0.02874739  0.67420019     0.09520
H3341       H  0.46715162  0.13043300  0.70676349     0.07540
Br3342     Br  0.46404829  0.10071634  0.75978957    -0.03070
C3343       C  0.38724860  0.02536301  0.85148791    -0.09710
C3344       C  0.40163278  0.04606821  0.86834217     0.06490
C3345       C  0.43063114  0.04306690  0.87508238    -0.03470
C3346       C  0.44689239  0.02443746  0.85822094    -0.07920
C3347       C  0.43337737  0.00908368  0.83568274     0.05610
C3348       C  0.40326303  0.00571827  0.83554144    -0.02950
Br3349     Br  0.38325682  0.97853403  0.81088561    -0.02640
H3350       H  0.36409544  0.02627057  0.84863667     0.09520
H3351       H  0.47013655  0.02484772  0.86035339     0.07540
Br3352     Br  0.44870118  0.06459634  0.90548316    -0.03070
C3353       C  0.54088108  0.12913453  0.70287176    -0.09710
C3354       C  0.53994784  0.12692317  0.67264929     0.06490
C3355       C  0.52832634  0.10233881  0.65897948    -0.03470
C3356       C  0.52477137  0.07776777  0.67504341    -0.07920
C3357       C  0.53055258  0.07835726  0.70473420     0.05610
C3358       C  0.53713139  0.10450248  0.71918437    -0.02950
Br3359     Br  0.54621975  0.10690021  0.75963838    -0.02640
H3360       H  0.54961915  0.14847183  0.71321809     0.09520
H3361       H  0.51786173  0.05798938  0.66414322     0.07540
Br3362     Br  0.52224658  0.09912098  0.61794532    -0.03070
C3363       C  0.60390642  0.02535171  0.77888220    -0.09710
C3364       C  0.57978960  0.01665040  0.79497918     0.06490
C3365       C  0.58160534  0.01290093  0.82516543    -0.03470
C3366       C  0.60673452  0.02066220  0.83891212    -0.07920
C3367       C  0.62825374  0.03478227  0.82336055     0.05610
C3368       C  0.62834819  0.03473733  0.79314984    -0.02950
Br3369     Br  0.65937027  0.05144349  0.77131632    -0.02640
H3370       H  0.60276263  0.02767512  0.75563295     0.09520
H3371       H  0.60717758  0.02038390  0.86235164     0.07540
Br3372     Br  0.54990595  0.00176746  0.84987955    -0.03070
C3373       C  0.28305513  0.54799871  0.92667399    -0.09710
C3374       C  0.29502463  0.54735315  0.95443290     0.06490
C3375       C  0.32511691  0.54967063  0.95741387    -0.03470
C3376       C  0.34241685  0.55404326  0.93295223    -0.07920
C3377       C  0.33003941  0.55497761  0.90546417     0.05610
C3378       C  0.30031005  0.55081185  0.90233490    -0.02950
Br3379     Br  0.28215264  0.55056323  0.86504941    -0.02640
H3380       H  0.26019281  0.54496685  0.92354633     0.09520
H3381       H  0.36519392  0.55855877  0.93557284     0.07540
Br3382     Br  0.34339654  0.54894792  0.99420717    -0.03070
C3383       C  0.16675660  0.54450307  0.93075691    -0.09710
C3384       C  0.18740926  0.55385751  0.95053610     0.06490
C3385       C  0.18569664  0.58127047  0.96415725    -0.03470
C3386       C  0.16382120  0.59961180  0.95682056    -0.07920
C3387       C  0.14393540  0.59078986  0.93611155     0.05610
C3388       C  0.14465036  0.56293087  0.92361386    -0.02950
Br3389     Br  0.11709608  0.55047968  0.89518374    -0.02640
H3390       H  0.16730713  0.52270639  0.92176567     0.09520
H3391       H  0.16364382  0.62155759  0.96558870     0.07540
Br3392     Br  0.21209423  0.59464847  0.99333651    -0.03070
C3393       C  0.28918784  0.43435346  0.93128175    -0.09710
C3394       C  0.30391030  0.44147709  0.95637303     0.06490
C3395       C  0.33215210  0.45276002  0.95381389    -0.03470
C3396       C  0.34481660  0.45457017  0.92611627    -0.07920
C3397       C  0.32747159  0.45021687  0.90155441     0.05610
C3398       C  0.29806851  0.44561298  0.90533028    -0.02950
Br3399     Br  0.27166564  0.44747444  0.87342362    -0.02640
H3400       H  0.26768283  0.42590743  0.93315913     0.09520
H3401       H  0.36776782  0.45836807  0.92381233     0.07540
Br3402     Br  0.35376192  0.46425487  0.98713126    -0.03070
C3403       C  0.16273279  0.41074753  0.94025702    -0.09710
C3404       C  0.18223565  0.38900797  0.94885138     0.06490
C3405       C  0.21145762  0.39184945  0.94048954    -0.03470
C3406       C  0.21790092  0.41184149  0.91909116    -0.07920
C3407       C  0.20216098  0.43737663  0.91882190     0.05610
C3408       C  0.17251370  0.43391196  0.92347558    -0.02950
Br3409     Br  0.14626688  0.46170134  0.90873114    -0.02640
H3410       H  0.13972497  0.40755976  0.94271994     0.09520
H3411       H  0.23680921  0.40920638  0.90568710     0.07540
Br3412     Br  0.23917697  0.36217507  0.94828523    -0.03070
C3413       C  0.32429654  0.44301062  0.07920323    -0.09710
C3414       C  0.32422454  0.45233806  0.10809739     0.06490
C3415       C  0.29806636  0.45805885  0.12233269    -0.03470
C3416       C  0.27237434  0.45166972  0.10842114    -0.07920
C3417       C  0.27237796  0.43981121  0.08017502     0.05610
C3418       C  0.29883043  0.43407223  0.06626265    -0.02950
Br3419     Br  0.30233508  0.41125444  0.03154434    -0.02640
H3420       H  0.34452352  0.43710568  0.06877891     0.09520
H3421       H  0.25223590  0.45688716  0.11930229     0.07540
Br3422     Br  0.29676860  0.46945122  0.16246599    -0.03070
C3423       C  0.11925034  0.41273704  0.02697027    -0.09710
C3424       C  0.12151830  0.40669099  0.05656787     0.06490
C3425       C  0.11807530  0.42949782  0.07715946    -0.03470
C3426       C  0.12278760  0.45749481  0.06758943    -0.07920
C3427       C  0.13519193  0.45958334  0.04005321     0.05610
C3428       C  0.12298292  0.44146847  0.01911966    -0.02950
Br3429     Br  0.11922434  0.45411115  0.98045917    -0.02640
H3430       H  0.11760662  0.39573968  0.01062898     0.09520
H3431       H  0.12519300  0.47484536  0.08343051     0.07540
Br3432     Br  0.11086739  0.42373833  0.11766376    -0.03070
C3433       C  0.32218242  0.52642194  0.10622718    -0.09710
C3434       C  0.31392021  0.53967931  0.13224904     0.06490
C3435       C  0.28490070  0.54195102  0.14052366    -0.03470
C3436       C  0.26404664  0.53495825  0.12045417    -0.07920
C3437       C  0.27267813  0.52661150  0.09266652     0.05610
C3438       C  0.30145469  0.52061539  0.08577940    -0.02950
Br3439     Br  0.31333875  0.50689660  0.04822579    -0.02640
H3440       H  0.34473893  0.52468680  0.10015735     0.09520
H3441       H  0.24146129  0.53814408  0.12570249     0.07540
Br3442     Br  0.27330652  0.55867341  0.17704061    -0.03070
C3443       C  0.13192505  0.54256281  0.04764947    -0.09710
C3444       C  0.14632442  0.53081767  0.07129992     0.06490
C3445       C  0.14421093  0.54468479  0.09813722    -0.03470
C3446       C  0.14047797  0.57433120  0.09801758    -0.07920
C3447       C  0.13854013  0.58836434  0.07116377     0.05610
C3448       C  0.12947327  0.57248885  0.04683050    -0.02950
Br3449     Br  0.11777979  0.59047312  0.01184256    -0.02640
H3450       H  0.13019823  0.53024794  0.02756197     0.09520
H3451       H  0.14304510  0.58634825  0.11815755     0.07540
Br3452     Br  0.15743373  0.52683251  0.13272103    -0.03070
C3453       C  0.44792373  0.26166170  0.88157695    -0.09710
C3454       C  0.43967603  0.26584730  0.91062305     0.06490
C3455       C  0.43628937  0.29436141  0.92182172    -0.03470
C3456       C  0.44296625  0.31766239  0.90458965    -0.07920
C3457       C  0.44874067  0.31326018  0.87524028     0.05610
C3458       C  0.45267790  0.28521420  0.86398394    -0.02950
Br3459     Br  0.46003852  0.27850976  0.82354438    -0.02640
H3460       H  0.45101499  0.24007184  0.87258652     0.09520
H3461       H  0.43873687  0.33939668  0.91284464     0.07540
Br3462     Br  0.42121768  0.30428406  0.95924786    -0.03070
C3463       C  0.45306367  0.12560780  0.96966730    -0.09710
C3464       C  0.47000910  0.13676426  0.94705687     0.06490
C3465       C  0.45869033  0.13289833  0.91932468    -0.03470
C3466       C  0.42916397  0.13740602  0.91658138    -0.07920
C3467       C  0.41204031  0.14003247  0.94190140     0.05610
C3468       C  0.42313672  0.12910102  0.96779619    -0.02950
Br3469     Br  0.39910044  0.12088364  0.00043901    -0.02640
H3470       H  0.46262272  0.12153383  0.99048206     0.09520
H3471       H  0.42040341  0.14078209  0.89528185     0.07540
Br3472     Br  0.48288902  0.13533181  0.88567627    -0.03070
C3473       C  0.51606286  0.30659049  0.88280977    -0.09710
C3474       C  0.50718923  0.30976763  0.91167265     0.06490
C3475       C  0.51071058  0.33672990  0.92630505    -0.03470
C3476       C  0.52908349  0.35702129  0.91440101    -0.07920
C3477       C  0.54202422  0.35094728  0.88784142     0.05610
C3478       C  0.53317405  0.32738219  0.87053433    -0.02950
Br3479     Br  0.54638671  0.32063267  0.83145892    -0.02640
H3480       H  0.51241621  0.28667061  0.87067131     0.09520
H3481       H  0.53458964  0.37655641  0.92650545     0.07540
Br3482     Br  0.49345410  0.34659720  0.96304157    -0.03070
C3483       C  0.57180463  0.18383822  0.97730956    -0.09710
C3484       C  0.56970107  0.21008439  0.96303086     0.06490
C3485       C  0.59436117  0.22541263  0.95455303    -0.03470
C3486       C  0.62080311  0.21179361  0.95618698    -0.07920
C3487       C  0.62151783  0.18234867  0.96295484     0.05610
C3488       C  0.59796382  0.16950133  0.97722141    -0.02950
Br3489     Br  0.59762495  0.12982436  0.98896471    -0.02640
H3490       H  0.55253217  0.17265444  0.98454185     0.09520
H3491       H  0.63933498  0.22193991  0.94605947     0.07540
Br3492     Br  0.59208203  0.26234479  0.93611983    -0.03070
C3493       C  0.52400951  0.31306205  0.06348086    -0.09710
C3494       C  0.53974446  0.31996018  0.03812765     0.06490
C3495       C  0.56356756  0.33871914  0.04001462    -0.03470
C3496       C  0.57199311  0.34862512  0.06725201    -0.07920
C3497       C  0.55713289  0.33952570  0.09206393     0.05610
C3498       C  0.53241300  0.32288086  0.09022908    -0.02950
Br3499     Br  0.51120275  0.31057413  0.12379604    -0.02640
H3500       H  0.50594160  0.29821752  0.06327887     0.09520
H3501       H  0.59116376  0.36192445  0.06931230     0.07540
Br3502     Br  0.58681114  0.34933032  0.00735078    -0.03070
C3503       C  0.61667957  0.19076235  0.04177179    -0.09710
C3504       C  0.60221821  0.16711165  0.05369613     0.06490
C3505       C  0.57303954  0.16875180  0.06128963    -0.03470
C3506       C  0.55847747  0.19427129  0.05695273    -0.07920
C3507       C  0.57284855  0.21809888  0.04502174     0.05610
C3508       C  0.60208825  0.21646486  0.03757520    -0.02950
Br3509     Br  0.62294223  0.24926042  0.02342405    -0.02640
H3510       H  0.63970913  0.18991124  0.03779239     0.09520
H3511       H  0.53560190  0.19508185  0.06187412     0.07540
Br3512     Br  0.55329224  0.13739200  0.08004247    -0.03070
C3513       C  0.46394777  0.32760745  0.03672980    -0.09710
C3514       C  0.44623379  0.30370321  0.02919862     0.06490
C3515       C  0.41828134  0.30339739  0.04053842    -0.03470
C3516       C  0.41224189  0.32010262  0.06507784    -0.07920
C3517       C  0.43359572  0.33793883  0.07807875     0.05610
C3518       C  0.45816756  0.34451801  0.06158290    -0.02950
Br3519     Br  0.48453843  0.37502106  0.07184229    -0.02640
H3520       H  0.48352292  0.33172381  0.02485051     0.09520
H3521       H  0.39110132  0.31765796  0.07482497     0.07540
Br3522     Br  0.38759089  0.28170490  0.02320215    -0.03070
C3523       C  0.42473996  0.21258513  0.05810604    -0.09710
C3524       C  0.44908298  0.19493553  0.05561796     0.06490
C3525       C  0.44649770  0.16476640  0.05796637    -0.03470
C3526       C  0.41945197  0.15242390  0.06098097    -0.07920
C3527       C  0.39500413  0.16990848  0.06049469     0.05610
C3528       C  0.39759902  0.20012010  0.05920298    -0.02950
Br3529     Br  0.36415020  0.22463035  0.06132987    -0.02640
H3530       H  0.42657174  0.23587656  0.05664431     0.09520
H3531       H  0.41752122  0.12933114  0.06443129     0.07540
Br3532     Br  0.47920576  0.13970815  0.05524432    -0.03070
C3533       C  0.89360985  0.33026212  0.54822640    -0.09710
C3534       C  0.86750971  0.31698648  0.53993087     0.06490
C3535       C  0.86587507  0.28696806  0.53617205    -0.03470
C3536       C  0.88871516  0.27031103  0.54487586    -0.07920
C3537       C  0.91461453  0.28328654  0.55434190     0.05610
C3538       C  0.91697088  0.31371567  0.55599970    -0.02950
Br3539     Br  0.95094674  0.33467438  0.56767186    -0.02640
H3540       H  0.89484219  0.35354169  0.55149946     0.09520
H3541       H  0.88661331  0.24697172  0.54288953     0.07540
Br3542     Br  0.83085534  0.26803470  0.52449673    -0.03070
C3543       C  0.92771028  0.14824293  0.55830730    -0.09710
C3544       C  0.94672312  0.14446895  0.58127524     0.06490
C3545       C  0.97630827  0.14185533  0.57535199    -0.03470
C3546       C  0.98679432  0.15208134  0.54899051    -0.07920
C3547       C  0.96751453  0.16487376  0.52971015     0.05610
C3548       C  0.93824691  0.15723660  0.53177952    -0.02950
Br3549     Br  0.91051566  0.16751025  0.50339256    -0.02640
H3550       H  0.90461484  0.14708368  0.56170885     0.09520
H3551       H  0.00980135  0.15534952  0.54634635     0.07540
Br3552     Br  0.00275747  0.12770567  0.60330204    -0.03070
C3553       C  0.90554692  0.33077515  0.48532012    -0.09710
C3554       C  0.93502600  0.33710102  0.48681354     0.06490
C3555       C  0.94575022  0.36281278  0.47455061    -0.03470
C3556       C  0.92796459  0.37806400  0.45620430    -0.07920
C3557       C  0.89972104  0.36852569  0.45207774     0.05610
C3558       C  0.88756860  0.34688842  0.46892500    -0.02950
Br3559     Br  0.84806615  0.33422564  0.46579844    -0.02640
H3560       H  0.89696784  0.31040642  0.49259747     0.09520
H3561       H  0.93661169  0.39581833  0.44373911     0.07540
Br3562     Br  0.98511563  0.37514006  0.47794309    -0.03070
C3563       C  0.95795246  0.21470730  0.38166647    -0.09710
C3564       C  0.95995416  0.18481879  0.38536334     0.06490
C3565       C  0.95870231  0.17362310  0.41335294    -0.03470
C3566       C  0.94818845  0.19099540  0.43584761    -0.07920
C3567       C  0.94017496  0.21966864  0.43075207     0.05610
C3568       C  0.94574982  0.23176932  0.40344282    -0.02950
Br3569     Br  0.93389240  0.27023349  0.39345011    -0.02640
H3570       H  0.95941852  0.22346855  0.36007172     0.09520
H3571       H  0.94626838  0.18196529  0.45708060     0.07540
Br3572     Br  0.96475483  0.13330563  0.42037648    -0.03070
C3573       C  0.04375096  0.33419735  0.43386398    -0.09710
C3574       C  0.04602441  0.33059092  0.46366904     0.06490
C3575       C  0.06081067  0.35144880  0.48027537    -0.03470
C3576       C  0.08108810  0.36872795  0.46658612    -0.07920
C3577       C  0.08517587  0.36509736  0.43678475     0.05610
C3578       C  0.06359395  0.35142422  0.42000834    -0.02950
Br3579     Br  0.06341256  0.34940206  0.37852165    -0.02640
H3580       H  0.02981823  0.32037541  0.42087052     0.09520
H3581       H  0.09589897  0.38158164  0.47952113     0.07540
Br3582     Br  0.05455006  0.35638271  0.52078273    -0.03070
C3583       C  0.03382824  0.17232805  0.45279468    -0.09710
C3584       C  0.02903970  0.19924946  0.44049788     0.06490
C3585       C  0.02784283  0.20267123  0.41046171    -0.03470
C3586       C  0.03166118  0.17887463  0.39278770    -0.07920
C3587       C  0.04013016  0.15284212  0.40484231     0.05610
C3588       C  0.04004993  0.14888880  0.43480430    -0.02950
Br3589     Br  0.05030641  0.11276215  0.45156139    -0.02640
H3590       H  0.03342309  0.16983065  0.47607080     0.09520
H3591       H  0.03267878  0.18187966  0.36956574     0.07540
Br3592     Br  0.02505831  0.23992178  0.39256109    -0.03070
C3593       C  0.07879646  0.32828791  0.57854403    -0.09710
C3594       C  0.10152545  0.31074123  0.56831050     0.06490
C3595       C  0.10015968  0.28083590  0.57396924    -0.03470
C3596       C  0.07664157  0.26942900  0.58896692    -0.07920
C3597       C  0.05154058  0.28571890  0.59270767     0.05610
C3598       C  0.05412969  0.31599500  0.59094581    -0.02950
Br3599     Br  0.02265081  0.34058452  0.60171317    -0.02640
H3600       H  0.08095955  0.35166976  0.57847083     0.09520
H3601       H  0.07645022  0.24662655  0.59325151     0.07540
Br3602     Br  0.13188860  0.25547739  0.56505270    -0.03070
C3603       C  0.05520385  0.19611329  0.58080209    -0.09710
C3604       C  0.06726009  0.19893760  0.55315017     0.06490
C3605       C  0.08404022  0.17651004  0.54133163    -0.03470
C3606       C  0.09020275  0.15270090  0.55855209    -0.07920
C3607       C  0.07936206  0.15141002  0.58704703     0.05610
C3608       C  0.06157187  0.17333313  0.59805983    -0.02950
Br3609     Br  0.04968747  0.17686000  0.63809862    -0.02640
H3610       H  0.04102544  0.21212205  0.58980650     0.09520
H3611       H  0.10493916  0.13624597  0.55051263     0.07540
Br3612     Br  0.09837465  0.17751710  0.50242093    -0.03070
C3613       C  0.35963111  0.93933988  0.46196718    -0.09710
C3614       C  0.36537524  0.93060930  0.43355663     0.06490
C3615       C  0.34955316  0.94544780  0.41257577    -0.03470
C3616       C  0.31998028  0.94779841  0.41828523    -0.07920
C3617       C  0.31042493  0.94377256  0.44691596     0.05610
C3618       C  0.33123509  0.94669959  0.46883902    -0.02950
Br3619     Br  0.32523086  0.97266559  0.50061165    -0.02640
H3620       H  0.37613687  0.93884819  0.47837467     0.09520
H3621       H  0.30498998  0.95061560  0.40072617     0.07540
Br3622     Br  0.36320551  0.94684641  0.37341540    -0.03070
C3623       C  0.12013366  0.94034332  0.44415634    -0.09710
C3624       C  0.11981067  0.91593881  0.42638076     0.06490
C3625       C  0.12976102  0.89005117  0.43888736    -0.03470
C3626       C  0.15380481  0.89223536  0.45676728    -0.07920
C3627       C  0.16326161  0.91992846  0.46470951     0.05610
C3628       C  0.14320375  0.94324804  0.46301181    -0.02950
Br3629     Br  0.14888035  0.98127225  0.47941130    -0.02640
H3630       H  0.10849900  0.95954757  0.43794849     0.09520
H3631       H  0.16721995  0.87344721  0.46004577     0.07540
Br3632     Br  0.12106315  0.85292579  0.42225846    -0.03070
C3633       C  0.31392774  0.90628597  0.52689169    -0.09710
C3634       C  0.29868970  0.92683601  0.54372413     0.06490
C3635       C  0.31209722  0.94011678  0.56783917    -0.03470
C3636       C  0.34020361  0.93276164  0.57424543    -0.07920
C3637       C  0.35365499  0.90979037  0.55944243     0.05610
C3638       C  0.34154881  0.89834653  0.53399467    -0.02950
Br3639     Br  0.35955731  0.86942825  0.50965848    -0.02640
H3640       H  0.30458510  0.89633693  0.50775847     0.09520
H3641       H  0.34959223  0.94136341  0.59404393     0.07540
Br3642     Br  0.29308660  0.96564699  0.59508312    -0.03070
C3643       C  0.15214541  0.96230807  0.59411878    -0.09710
C3644       C  0.17206148  0.96364556  0.61671392     0.06490
C3645       C  0.20130628  0.95934475  0.61067902    -0.03470
C3646       C  0.20914365  0.94571031  0.58482293    -0.07920
C3647       C  0.18881690  0.94125088  0.56290188     0.05610
C3648       C  0.16011555  0.94981892  0.56771216    -0.02950
Br3649     Br  0.13047048  0.94141739  0.54018536    -0.02640
H3650       H  0.12942673  0.96573980  0.59852476     0.09520
H3651       H  0.23112569  0.93881537  0.58205980     0.07540
Br3652     Br  0.22930955  0.96371326  0.64077261    -0.03070
C3653       C  0.33714790  0.07743594  0.56203229    -0.09710
C3654       C  0.32547465  0.10475306  0.55661332     0.06490
C3655       C  0.29802977  0.10773019  0.54547432    -0.03470
C3656       C  0.28188272  0.08327954  0.54066390    -0.07920
C3657       C  0.29266524  0.05565903  0.54682021     0.05610
C3658       C  0.32092601  0.05259953  0.55669190    -0.02950
Br3659     Br  0.33863746  0.01600511  0.56253104    -0.02640
H3660       H  0.35831221  0.07562032  0.57159812     0.09520
H3661       H  0.26082314  0.08609519  0.53149720     0.07540
Br3662     Br  0.28100783  0.14488220  0.53870607    -0.03070
C3663       C  0.21796981  0.05667477  0.57701445    -0.09710
C3664       C  0.19578127  0.05408699  0.55687927     0.06490
C3665       C  0.16780847  0.04716366  0.56647602    -0.03470
C3666       C  0.16247858  0.04373116  0.59588186    -0.07920
C3667       C  0.18508054  0.04633242  0.61584946     0.05610
C3668       C  0.21333132  0.05039779  0.60580692    -0.02950
Br3669     Br  0.24595574  0.04977411  0.63119940    -0.02640
H3670       H  0.23957703  0.06111765  0.57023316     0.09520
H3671       H  0.14042854  0.04083937  0.60316737     0.07540
Br3672     Br  0.13642968  0.04228024  0.54001800    -0.03070
C3673       C  0.33011221  0.04506121  0.47024459    -0.09710
C3674       C  0.31333268  0.03191276  0.44817042     0.06490
C3675       C  0.32148793  0.03615215  0.41922636    -0.03470
C3676       C  0.34033375  0.05878373  0.41316859    -0.07920
C3677       C  0.34905259  0.07785189  0.43552564     0.05610
C3678       C  0.34772864  0.06861072  0.46399606    -0.02950
Br3679     Br  0.36478425  0.09073182  0.49485616    -0.02640
H3680       H  0.32644840  0.04001719  0.49272886     0.09520
H3681       H  0.34398591  0.06437352  0.39076285     0.07540
Br3682     Br  0.30441596  0.01613782  0.38699896    -0.03070
C3683       C  0.17310779  0.01847400  0.38171207    -0.09710
C3684       C  0.14955001  0.03585643  0.38748627     0.06490
C3685       C  0.14484571  0.04816783  0.41492676    -0.03470
C3686       C  0.16791565  0.05054585  0.43333028    -0.07920
C3687       C  0.19392707  0.03753684  0.42544661     0.05610
C3688       C  0.19601098  0.01988838  0.40031835    -0.02950
Br3689     Br  0.22874535  0.99671964  0.39021776    -0.02640
H3690       H  0.17569840  0.00788907  0.36072776     0.09520
H3691       H  0.16520286  0.06127012  0.45423466     0.07540
Br3692     Br  0.11030534  0.06908580  0.42404888    -0.03070
C3693       C  0.53152065  0.89128241  0.33589187    -0.09710
C3694       C  0.55181409  0.90719624  0.35201703     0.06490
C3695       C  0.56279260  0.93318015  0.34143273    -0.03470
C3696       C  0.56080674  0.93810793  0.31220031    -0.07920
C3697       C  0.54347809  0.92029816  0.29471314     0.05610
C3698       C  0.52702597  0.89804302  0.30700523    -0.02950
Br3699     Br  0.50130662  0.87451438  0.28429458    -0.02640
H3700       H  0.52247423  0.87140985  0.34427549     0.09520
H3701       H  0.57288776  0.95596273  0.30330974     0.07540
Br3702     Br  0.58723978  0.95795512  0.36444179    -0.03070
C3703       C  0.53442130  0.89073503  0.16171169    -0.09710
C3704       C  0.51951009  0.91685148  0.16241458     0.06490
C3705       C  0.52575280  0.93636561  0.14015479    -0.03470
C3706       C  0.55423403  0.93782416  0.12983740    -0.07920
C3707       C  0.57344559  0.91613214  0.13778651     0.05610
C3708       C  0.56142728  0.88989593  0.14822129    -0.02950
Br3709     Br  0.58124432  0.85345052  0.14623729    -0.02640
H3710       H  0.52770555  0.87304342  0.17532663     0.09520
H3711       H  0.56178035  0.95656007  0.11827290     0.07540
Br3712     Br  0.49826263  0.96549798  0.13109131    -0.03070
C3713       C  0.43484187  0.94487305  0.28672825    -0.09710
C3714       C  0.45583416  0.96306441  0.29876407     0.06490
C3715       C  0.46894636  0.95502836  0.32488062    -0.03470
C3716       C  0.46128125  0.92884571  0.33785370    -0.07920
C3717       C  0.44239432  0.90975102  0.32361468     0.05610
C3718       C  0.43026060  0.91756384  0.29714018    -0.02950
Br3719     Br  0.41025622  0.89075618  0.27177754    -0.02640
H3720       H  0.42588299  0.94910615  0.26583012     0.09520
H3721       H  0.47038781  0.92324609  0.35851807     0.07540
Br3722     Br  0.49806754  0.97831070  0.34270633    -0.03070
C3723       C  0.37104707  0.98520477  0.20285295    -0.09710
C3724       C  0.36740813  0.97720082  0.17408685     0.06490
C3725       C  0.39147744  0.97511404  0.15533613    -0.03470
C3726       C  0.41820466  0.97227751  0.16740974    -0.07920
C3727       C  0.42141787  0.97423661  0.19729511     0.05610
C3728       C  0.39824546  0.98439659  0.21476584    -0.02950
Br3729     Br  0.40038467  0.99946635  0.25337901    -0.02640
H3730       H  0.35241991  0.98878344  0.21673904     0.09520
H3731       H  0.43649835  0.96765091  0.15338187     0.07540
Br3732     Br  0.38982939  0.97025162  0.11392383    -0.03070
C3733       C  0.47573014  0.12101915  0.31711790    -0.09710
C3734       C  0.45201427  0.10736431  0.32988673     0.06490
C3735       C  0.44696000  0.07767805  0.32620484    -0.03470
C3736       C  0.46403624  0.06238446  0.30694127    -0.07920
C3737       C  0.48575522  0.07666022  0.29151946     0.05610
C3738       C  0.49288054  0.10562451  0.29764122    -0.02950
Br3739     Br  0.52306688  0.12569275  0.27762173    -0.02640
H3740       H  0.47947697  0.14400542  0.32054602     0.09520
H3741       H  0.45929704  0.03971587  0.30271672     0.07540
Br3742     Br  0.41643582  0.05756764  0.34592887    -0.03070
C3743       C  0.45258634  0.08480275  0.19967532    -0.09710
C3744       C  0.47166926  0.07673000  0.17749170     0.06490
C3745       C  0.46001421  0.06964055  0.15012399    -0.03470
C3746       C  0.43010766  0.06659920  0.14661698    -0.07920
C3747       C  0.41148785  0.06958274  0.17052454     0.05610
C3748       C  0.42338207  0.07796742  0.19755645    -0.02950
Br3749     Br  0.40139760  0.07814333  0.23310584    -0.02640
H3750       H  0.46091538  0.09149187  0.22052956     0.09520
H3751       H  0.42153566  0.06174676  0.12534972     0.07540
Br3752     Br  0.48476200  0.06156184  0.11777206    -0.03070
C3753       C  0.59535619  0.05848873  0.33356471    -0.09710
C3754       C  0.57114866  0.07385984  0.34418096     0.06490
C3755       C  0.54398407  0.06071744  0.34190850    -0.03470
C3756       C  0.54053518  0.03717586  0.32256624    -0.07920
C3757       C  0.56433579  0.02606401  0.30692401     0.05610
C3758       C  0.59206880  0.03500925  0.31466160    -0.02950
Br3759     Br  0.62578577  0.01821953  0.29707594    -0.02640
H3760       H  0.61695051  0.06676786  0.33710807     0.09520
H3761       H  0.51902913  0.02971454  0.31752597     0.07540
Br3762     Br  0.51174444  0.07449373  0.36406031    -0.03070
C3763       C  0.60761589  0.02877583  0.14411877    -0.09710
C3764       C  0.63234052  0.02718831  0.16106340     0.06490
C3765       C  0.63869937  0.00187603  0.17593981    -0.03470
C3766       C  0.61652912  0.98197570  0.17971582    -0.07920
C3767       C  0.58879254  0.99038654  0.17146365     0.05610
C3768       C  0.58624768  0.00847434  0.14749411    -0.02950
Br3769     Br  0.55031536  0.01728983  0.12970513    -0.02640
H3770       H  0.60429248  0.04676859  0.12972152     0.09520
H3771       H  0.61944028  0.96478274  0.19507757     0.07540
Br3772     Br  0.67546323  0.99537334  0.19322764    -0.03070
C3773       C  0.91951213  0.47314155  0.33158218    -0.09710
C3774       C  0.92258752  0.47312486  0.30162969     0.06490
C3775       C  0.89839289  0.47648260  0.28360507    -0.03470
C3776       C  0.87133561  0.47814355  0.29602000    -0.07920
C3777       C  0.86826470  0.47414153  0.32560580     0.05610
C3778       C  0.89246261  0.47495792  0.34388993    -0.02950
Br3779     Br  0.89033669  0.47309163  0.38541122    -0.02640
H3780       H  0.93809100  0.47161297  0.34548809     0.09520
H3781       H  0.85258521  0.47728095  0.28215110     0.07540
Br3782     Br  0.90001833  0.47464450  0.24195913    -0.03070
C3783       C  0.97050826  0.40311576  0.22298049    -0.09710
C3784       C  0.97161919  0.42878075  0.20694159     0.06490
C3785       C  0.96980748  0.42748037  0.17654011    -0.03470
C3786       C  0.96769226  0.40059488  0.16296340    -0.07920
C3787       C  0.96532717  0.37550914  0.17942812     0.05610
C3788       C  0.96820625  0.37656907  0.20934751    -0.02950
Br3789     Br  0.96454528  0.34257035  0.23255358    -0.02640
H3790       H  0.97145590  0.40344994  0.24638902     0.09520
H3791       H  0.96409719  0.39960728  0.13981657     0.07540
Br3792     Br  0.96772626  0.46073233  0.15223014    -0.03070
C3793       C  0.94825051  0.59791078  0.31464971    -0.09710
C3794       C  0.96108347  0.57099222  0.31265988     0.06490
C3795       C  0.95278280  0.54905181  0.33197189    -0.03470
C3796       C  0.92613880  0.55069201  0.34556943    -0.07920
C3797       C  0.90999116  0.57555611  0.34238580     0.05610
C3798       C  0.92351998  0.60092736  0.33126389    -0.02950
Br3799     Br  0.90917538  0.63976533  0.33632167    -0.02640
H3800       H  0.95640685  0.61590776  0.30220694     0.09520
H3801       H  0.91759882  0.53235712  0.35719272     0.07540
Br3802     Br  0.97790422  0.51890725  0.34334089    -0.03070
C3803       C  0.97068587  0.58987510  0.14382415    -0.09710
C3804       C  0.96151476  0.61557817  0.15701841     0.06490
C3805       C  0.97406363  0.62648454  0.18221547    -0.03470
C3806       C  0.99251076  0.60885899  0.19685023    -0.07920
C3807       C  0.99704550  0.58033473  0.18682617     0.05610
C3808       C  0.98865914  0.57181807  0.15879373    -0.02950
Br3809     Br  0.99764446  0.53485547  0.14160876    -0.02640
H3810       H  0.96178971  0.58271263  0.12328374     0.09520
H3811       H  0.99952990  0.61602816  0.21808447     0.07540
Br3812     Br  0.96394587  0.66345459  0.19902547    -0.03070
C3813       C  0.09564788  0.55610985  0.35022323    -0.09710
C3814       C  0.11130350  0.56329368  0.32497543     0.06490
C3815       C  0.09654365  0.57425685  0.30103057    -0.03470
C3816       C  0.06689005  0.57747733  0.30369640    -0.07920
C3817       C  0.05302792  0.55826024  0.32231962     0.05610
C3818       C  0.06578562  0.55467066  0.34902193    -0.02950
Br3819     Br  0.04280925  0.54796283  0.38269897    -0.02640
H3820       H  0.10618892  0.55322414  0.37076313     0.09520
H3821       H  0.05504896  0.58798830  0.28700164     0.07540
Br3822     Br  0.11669781  0.58436297  0.26574818    -0.03070
C3823       C  0.06583802  0.57177203  0.22257627    -0.09710
C3824       C  0.06631297  0.54580087  0.20727443     0.06490
C3825       C  0.06718028  0.54608420  0.17682500    -0.03470
C3826       C  0.06543121  0.57260803  0.16261134    -0.07920
C3827       C  0.06287821  0.59856986  0.17865836     0.05610
C3828       C  0.06288941  0.59791952  0.20892265    -0.02950
Br3829     Br  0.06009198  0.63256533  0.23256338    -0.02640
H3830       H  0.06409771  0.57115897  0.24554616     0.09520
H3831       H  0.06817519  0.57315879  0.13932790     0.07540
Br3832     Br  0.07367205  0.51193955  0.15393505    -0.03070
C3833       C  0.04779451  0.46463025  0.36454536    -0.09710
C3834       C  0.03303694  0.44482417  0.34675802     0.06490
C3835       C  0.04417011  0.41712740  0.34323799    -0.03470
C3836       C  0.07375598  0.41396779  0.34548079    -0.07920
C3837       C  0.09115364  0.43743044  0.35498836     0.05610
C3838       C  0.07755385  0.46180794  0.36766032    -0.02950
Br3839     Br  0.09782787  0.49311088  0.38600533    -0.02640
H3840       H  0.03785936  0.48517282  0.36999859     0.09520
H3841       H  0.08307105  0.39386320  0.33762463     0.07540
Br3842     Br  0.02202709  0.38739395  0.32415466    -0.03070
C3843       C  0.03747227  0.39065972  0.17857757    -0.09710
C3844       C  0.04164478  0.36326265  0.18984981     0.06490
C3845       C  0.04043701  0.35879367  0.21979796    -0.03470
C3846       C  0.03754522  0.38256832  0.23841942    -0.07920
C3847       C  0.03766257  0.41032736  0.22693505     0.05610
C3848       C  0.03751733  0.41439451  0.19692371    -0.02950
Br3849     Br  0.03985690  0.45172484  0.17966079    -0.02640
H3850       H  0.03921854  0.39409159  0.15546291     0.09520
H3851       H  0.03755545  0.37959733  0.26157374     0.07540
Br3852     Br  0.04708244  0.32137472  0.23577244    -0.03070
loop_ 
_geom_bond_atom_site_label_1 
_geom_bond_atom_site_label_2 
_geom_bond_distance 
_geom_bond_site_symmetry_2 
_ccdc_geom_bond_type 
O1            C9   1.244       .  A
O1          Co21   1.906       .  S
O2           C10   1.242   1_655  A
O2          Co22   1.944       .  S
O3           C11   1.278       .  A
O3          Co23   2.013   1_655  S
O4           C12   1.303       .  A
O4          Co24   2.015       .  S
O5           C11   1.254       .  A
O5          Co22   1.933       .  S
O6           C12   1.240       .  A
O6          Co21   1.999       .  S
O7           C10   1.242       .  A
O7          Co24   1.931       .  S
O8            C9   1.277       .  A
O8          Co23   2.038       .  S
C9         C3847   1.431       .  S
C10        C3807   1.437   1_455  S
C11        C3784   1.451       .  S
C12        C3824   1.463       .  S
O13          C26   1.262       .  A
O13         Co21   1.963       .  S
O14          C27   1.264       .  A
O14         Co22   1.983       .  S
O15          C28   1.269   1_655  A
O15         Co23   1.903   1_655  S
O16          C29   1.252   1_455  A
O16         Co24   1.876       .  S
O17          C29   1.291       .  A
O17         Co22   2.067       .  S
O18          C28   1.296       .  A
O18         Co21   2.073       .  S
O19          C26   1.233       .  A
O19         Co24   1.922       .  S
O20          C27   1.271       .  A
O20         Co23   1.930   1_655  S
Co21         O25   2.210       .  S
Co22         O25   2.092   1_655  S
Co23         O25   1.842       .  S
Co24         O25   1.981       .  S
C26        C3817   1.456       .  S
C27        C3774   1.429       .  S
C28        C3834   1.442       .  S
C29        C3794   1.441       .  S
O30          C38   1.256   1_565  A
O30         Co50   1.996       .  S
O31          C39   1.286       .  A
O31         Co51   2.049   1_565  S
O32          C40   1.255       .  A
O32         Co52   1.930       .  S
O33          C41   1.291       .  A
O33         Co53   2.058       .  S
O34          C40   1.265       .  A
O34         Co51   1.962       .  S
O35          C41   1.265       .  A
O35         Co50   1.926       .  S
O36          C39   1.279       .  A
O36         Co53   1.965       .  S
O37          C38   1.266       .  A
O37         Co52   1.996       .  S
C38        C3757   1.469       .  S
C39        C3714   1.452       .  S
C40        C3737   1.428       .  S
C41        C3697   1.436       .  S
O42          C55   1.283       .  A
O42         Co50   2.069       .  S
O43          C56   1.228       .  A
O43         Co51   1.938       .  S
O44          C57   1.266   1_545  A
O44         Co52   1.937       .  S
O45          C58   1.229       .  A
O45         Co53   2.018       .  S
O46          C58   1.221       .  A
O46         Co51   1.906   1_565  S
O47          C57   1.264       .  A
O47         Co50   1.948       .  S
O48          C55   1.269       .  A
O48         Co53   1.944       .  S
O49          C56   1.261       .  A
O49         Co52   2.049       .  S
Co50         O54   1.969   1_565  S
Co51         O54   1.898       .  S
Co52         O54   2.078       .  S
Co53         O54   2.055   1_565  S
C55        C3704   1.467       .  S
C56        C3744   1.465       .  S
C57        C3767   1.450       .  S
C58        C3727   1.433       .  S
O59          C67   1.235       .  A
O59         Co79   1.982       .  S
O60          C68   1.240       .  A
O60         Co80   2.033       .  S
O61          C69   1.286       .  A
O61         Co81   2.028       .  S
O62          C70   1.264       .  A
O62         Co82   2.011   1_545  S
O63          C69   1.284       .  A
O63         Co80   1.899       .  S
O64          C70   1.269       .  A
O64         Co79   1.950       .  S
O65          C68   1.228       .  A
O65         Co82   1.939       .  S
O66          C67   1.227       .  A
O66         Co81   1.905   1_545  S
C67        C3687   1.396       .  S
C68        C3647   1.447       .  S
C69        C3627   1.466       .  S
C70        C3664   1.446       .  S
O71          C84   1.258       .  A
O71         Co79   1.921       .  S
O72          C85   1.272       .  A
O72         Co80   1.990       .  S
O73          C86   1.275       .  A
O73         Co81   2.043   1_545  S
O74          C87   1.274       .  A
O74         Co82   2.007       .  S
O75          C87   1.285       .  A
O75         Co80   1.961       .  S
O76          C86   1.282       .  A
O76         Co79   1.981       .  S
O77          C84   1.267       .  A
O77         Co82   2.038   1_545  S
O78          C85   1.250       .  A
O78         Co81   1.950       .  S
Co79         O83   1.946   1_545  S
Co80         O83   1.952       .  S
Co81         O83   2.037       .  S
Co82         O83   2.048       .  S
C84        C3657   1.437       .  S
C85        C3617   1.461       .  S
C86        C3674   1.472       .  S
C87        C3634   1.456       .  S
O88          C96   1.281       .  A
O88        Co108   1.922   1_455  S
O89          C97   1.267       .  A
O89        Co109   1.914       .  S
O90          C98   1.246       .  A
O90        Co110   1.957       .  S
O91          C99   1.254       .  A
O91        Co111   1.962       .  S
O92          C98   1.244       .  A
O92        Co109   1.928   1_455  S
O93          C99   1.259       .  A
O93        Co108   1.966       .  S
O94          C97   1.289       .  A
O94        Co111   2.051       .  S
O95          C96   1.281       .  A
O95        Co110   2.026       .  S
C96        C3597   1.452       .  S
C97        C3554   1.445       .  S
C98        C3574   1.450       .  S
C99        C3537   1.449       .  S
O100        C113   1.279       .  A
O100       Co108   1.990       .  S
O101        C114   1.252   1_655  A
O101       Co109   1.885       .  S
O102        C115   1.276       .  A
O102       Co110   1.933       .  S
O103        C116   1.273       .  A
O103       Co111   1.949       .  S
O104        C116   1.261       .  A
O104       Co109   2.027       .  S
O105        C115   1.272       .  A
O105       Co108   2.033   1_455  S
O106        C113   1.269       .  A
O106       Co111   1.984       .  S
O107        C114   1.271       .  A
O107       Co110   2.008       .  S
Co108       O112   1.981       .  S
Co109       O112   2.053       .  S
Co110       O112   1.944   1_455  S
Co111       O112   1.856       .  S
C113       C3547   1.457       .  S
C114       C3584   1.413       .  S
C115       C3604   1.445       .  S
C116       C3567   1.452       .  S
O117        C125   1.262       .  A
O117       Co137   2.017   1_554  S
O118        C126   1.254       .  A
O118       Co138   1.938       .  S
O119        C127   1.290       .  A
O119       Co139   2.061       .  S
O120        C128   1.252       .  A
O120       Co140   1.968       .  S
O121        C127   1.254   1_556  A
O121       Co138   1.951       .  S
O122        C128   1.245       .  A
O122       Co137   1.951       .  S
O123        C126   1.272       .  A
O123       Co140   1.971       .  S
O124        C125   1.280       .  A
O124       Co139   2.022       .  S
C125       C3514   1.490       .  S
C126       C3474   1.447       .  S
C127       C3494   1.457       .  S
C128       C3454   1.457       .  S
O129        C142   1.274       .  A
O129       Co137   1.982       .  S
O130        C143   1.277       .  A
O130       Co138   2.051   1_554  S
O131        C144   1.243       .  A
O131       Co139   1.983       .  S
O132        C145   1.227       .  A
O132       Co140   1.912       .  S
O133        C145   1.287       .  A
O133       Co138   1.909       .  S
O134        C144   1.235       .  A
O134       Co137   1.953   1_554  S
O135        C142   1.253       .  A
O135       Co140   1.962       .  S
O136        C143   1.254       .  A
O136       Co139   1.903       .  S
Co137       O141   2.065       .  S
Co138       O141   2.118       .  S
Co139       O141   2.017   1_554  S
Co140       O141   2.175       .  S
C142       C3464   1.462       .  S
C143       C3507   1.433       .  S
C144       C3524   1.431       .  S
C145       C3484   1.429       .  S
O146        C154   1.263       .  A
O146       Co166   1.935       .  S
O147        C155   1.277       .  A
O147       Co167   2.044   1_556  S
O148        C156   1.251       .  A
O148       Co168   1.909       .  S
O149        C157   1.271       .  A
O149       Co169   1.986       .  S
O150        C156   1.262       .  A
O150       Co167   2.009       .  S
O151        C157   1.277       .  A
O151       Co166   2.062   1_556  S
O152        C155   1.259       .  A
O152       Co169   1.946       .  S
O153        C154   1.270       .  A
O153       Co168   1.969       .  S
C154       C3437   1.408       .  S
C155       C3394   1.449       .  S
C156       C3417   1.452       .  S
C157       C3374   1.456       .  S
O158        C171   1.229       .  A
O158       Co166   1.916   1_556  S
O159        C172   1.277       .  A
O159       Co167   2.049       .  S
O160        C173   1.253       .  A
O160       Co168   1.930       .  S
O161        C174   1.265       .  A
O161       Co169   1.918       .  S
O162        C174   1.283       .  A
O162       Co167   2.042   1_556  S
O163        C173   1.282       .  A
O163       Co166   2.043       .  S
O164        C171   1.242       .  A
O164       Co169   1.978       .  S
O165        C172   1.273       .  A
O165       Co168   1.918       .  S
Co166       O170   2.051       .  S
Co167       O170   2.134       .  S
Co168       O170   1.836       .  S
Co169       O170   1.887   1_556  S
C171       C3384   1.409       .  S
C172       C3427   1.479       .  S
C173       C3444   1.441       .  S
C174       C3407   1.459       .  S
O175        C183   1.284       .  A
O175       Co195   2.052       .  S
O176        C184   1.269       .  A
O176       Co196   1.993       .  S
O177        C185   1.271   1_545  A
O177       Co197   1.919   1_545  S
O178        C186   1.257       .  A
O178       Co198   1.989   1_545  S
O179        C185   1.289       .  A
O179       Co196   2.054       .  S
O180        C186   1.251       .  A
O180       Co195   1.961       .  S
O181        C184   1.279       .  A
O181       Co198   1.943       .  S
O182        C183   1.268       .  A
O182       Co197   1.871   1_545  S
C183       C3357   1.432       .  S
C184       C3294   1.419       .  S
C185       C3314   1.461       .  S
C186       C3334   1.460       .  S
O187        C200   1.258       .  A
O187       Co195   1.944       .  S
O188        C201   1.246       .  A
O188       Co196   1.921       .  S
O189        C202   1.284       .  A
O189       Co197   2.039   1_545  S
O190        C203   1.245       .  A
O190       Co198   1.941       .  S
O191        C203   1.258       .  A
O191       Co196   2.006       .  S
O192        C202   1.245       .  A
O192       Co195   1.886       .  S
O193        C200   1.261       .  A
O193       Co198   1.953   1_545  S
O194        C201   1.276       .  A
O194       Co197   2.032       .  S
Co195       O199   2.071   1_545  S
Co196       O199   2.130       .  S
Co197       O199   1.807       .  S
Co198       O199   1.974       .  S
C200       C3347   1.430       .  S
C201       C3327   1.451       .  S
C202       C3364   1.435       .  S
C203       C3307   1.473       .  S
O204        C212   1.274       .  A
O204       Co224   2.013       .  S
O205        C213   1.250       .  A
O205       Co225   1.930       .  S
O206        C214   1.280   1_554  A
O206       Co226   1.947       .  S
O207        C215   1.269   1_556  A
O207       Co227   1.950       .  S
O208        C214   1.276       .  A
O208       Co225   2.018       .  S
O209        C215   1.304       .  A
O209       Co224   2.052       .  S
O210        C213   1.262       .  A
O210       Co227   1.954       .  S
O211        C212   1.255       .  A
O211       Co226   1.941       .  S
C212       C3274   1.447       .  S
C213       C3214   1.428       .  S
C214       C3234   1.456       .  S
C215       C3254   1.446       .  S
O216        C229   1.249       .  A
O216       Co224   1.930       .  S
O217        C230   1.257       .  A
O217       Co225   1.900       .  S
O218        C231   1.298       .  A
O218       Co226   2.067       .  S
O219        C232   1.277       .  A
O219       Co227   1.992       .  S
O220        C232   1.251       .  A
O220       Co225   1.986       .  S
O221        C231   1.279       .  A
O221       Co224   1.885       .  S
O222        C229   1.253   1_556  A
O222       Co227   1.973       .  S
O223        C230   1.268       .  A
O223       Co226   2.023   1_556  S
Co224       O228   1.820   1_554  S
Co225       O228   1.909       .  S
Co226       O228   2.029   1_554  S
Co227       O228   1.989       .  S
C229       C3264   1.430       .  S
C230       C3244   1.416       .  S
C231       C3284   1.456       .  S
C232       C3227   1.478       .  S
O233        C241   1.276       .  A
O233       Co253   1.990       .  S
O234        C242   1.281       .  A
O234       Co254   2.007       .  S
O235        C243   1.263       .  A
O235       Co255   1.986       .  S
O236        C244   1.259       .  A
O236       Co256   1.977       .  S
O237        C243   1.265       .  A
O237       Co254   1.927       .  S
O238        C244   1.267       .  A
O238       Co253   1.947       .  S
O239        C242   1.260   1_455  A
O239       Co256   1.972       .  S
O240        C241   1.260       .  A
O240       Co255   1.989   1_455  S
C241       C3194   1.464       .  S
C242       C3137   1.459       .  S
C243       C3154   1.397       .  S
C244       C3177   1.420       .  S
O245        C258   1.239       .  A
O245       Co253   2.019       .  S
O246        C259   1.246       .  A
O246       Co254   2.009       .  S
O247        C260   1.280       .  A
O247       Co255   2.032   1_455  S
O248        C261   1.266       .  A
O248       Co256   1.989   1_655  S
O249        C261   1.251       .  A
O249       Co254   1.900       .  S
O250        C260   1.259       .  A
O250       Co253   1.891       .  S
O251        C258   1.218       .  A
O251       Co256   1.914       .  S
O252        C259   1.235       .  A
O252       Co255   1.960       .  S
Co253       O257   1.986       .  S
Co254       O257   1.951   1_655  S
Co255       O257   2.075   1_655  S
Co256       O257   2.054       .  S
C258       C3184   1.419       .  S
C259       C3164   1.455       .  S
C260       C3204   1.462       .  S
C261       C3144   1.415       .  S
O262        C270   1.273       .  A
O262       Co282   1.939       .  S
O263        C271   1.268       .  A
O263       Co283   1.968       .  S
O264        C272   1.267       .  A
O264       Co284   2.000       .  S
O265        C273   1.286       .  A
O265       Co285   2.083       .  S
O266        C272   1.264       .  A
O266       Co283   1.964       .  S
O267        C273   1.272       .  A
O267       Co282   1.913       .  S
O268        C271   1.257   1_455  A
O268       Co285   1.951       .  S
O269        C270   1.271   1_655  A
O269       Co284   1.971       .  S
C270       C3124   1.441       .  S
C271       C3084   1.447   1_655  S
C272       C3064   1.468       .  S
C273       C3104   1.448       .  S
O274        C287   1.284       .  A
O274       Co282   2.107       .  S
O275        C288   1.279       .  A
O275       Co283   2.018       .  S
O276        C289   1.263       .  A
O276       Co284   1.980   1_455  S
O277        C290   1.267       .  A
O277       Co285   1.956   1_655  S
O278        C290   1.266       .  A
O278       Co283   1.998       .  S
O279        C289   1.255       .  A
O279       Co282   1.962       .  S
O280        C287   1.270       .  A
O280       Co285   1.872       .  S
O281        C288   1.253       .  A
O281       Co284   1.916       .  S
Co282       O286   1.961   1_455  S
Co283       O286   2.016       .  S
Co284       O286   1.988       .  S
Co285       O286   1.952   1_455  S
C287       C3094   1.423       .  S
C288       C3054   1.451       .  S
C289       C3114   1.452       .  S
C290       C3074   1.464       .  S
O291        C299   1.255       .  A
O291       Co311   1.882       .  S
O292        C300   1.251       .  A
O292       Co312   1.926       .  S
O293        C301   1.260       .  A
O293       Co313   1.995       .  S
O294        C302   1.248       .  A
O294       Co314   1.928   1_554  S
O295        C301   1.243       .  A
O295       Co312   1.915       .  S
O296        C302   1.230       .  A
O296       Co311   1.916       .  S
O297        C300   1.283       .  A
O297       Co314   1.989       .  S
O298        C299   1.276       .  A
O298       Co313   2.084   1_554  S
C299       C3044   1.415       .  S
C300       C3004   1.461       .  S
C301       C2984   1.455       .  S
C302       C3027   1.410       .  S
O303        C316   1.292       .  A
O303       Co311   2.006       .  S
O304        C317   1.278       .  A
O304       Co312   2.003       .  S
O305        C318   1.264   1_556  A
O305       Co313   1.908       .  S
O306        C319   1.248       .  A
O306       Co314   1.920       .  S
O307        C319   1.262       .  A
O307       Co312   1.993       .  S
O308        C318   1.304       .  A
O308       Co311   2.118       .  S
O309        C316   1.264       .  A
O309       Co314   1.978   1_554  S
O310        C317   1.260       .  A
O310       Co313   1.896       .  S
Co311       O315   1.927   1_554  S
Co312       O315   2.028       .  S
Co313       O315   1.982       .  S
Co314       O315   2.041       .  S
C316       C3014   1.473       .  S
C317       C2974   1.439       .  S
C318       C3034   1.438       .  S
C319       C2994   1.459       .  S
C320        C357   1.487       .  S
C320        C479   1.508       .  S
C320        N338   1.346       .  A
N321        N338   1.329       .  A
N321        N343   1.306       .  A
N321       Co358   2.055       .  S
C322        C360   1.465       .  S
C322        N347   1.348       .  A
C322        H367   1.081       .  S
H323        C364   1.081       .  S
C324        C328   1.449       .  S
C324        N348   1.330       .  A
C324        H353   1.080       .  S
Co325       N343   2.124       .  S
Co325       N333   2.100       .  S
Co325       N365   2.133       .  S
Co325       N341   2.080       .  S
Co325      Cl369   2.419       .  S
N326        C364   1.350       .  A
N326        N333   1.333       .  A
N326       Co327   2.100       .  S
Co327       N330   2.178       .  S
Co327       N347   2.101       .  S
Co327       N334   2.160       .  S
Co327      Cl369   2.501       .  S
C328       C2667   1.534       .  S
C328        N366   1.383       .  A
N329        N336   1.319       .  A
N329        N359   1.320       .  A
N329       Co362   2.066       .  S
N330        N348   1.311       .  A
N330        N366   1.354       .  A
N331        C360   1.340       .  A
N331        N341   1.309       .  A
H332        C357   1.082       .  S
N333        N354   1.310       .  A
N334        N352   1.324       .  A
N334        N339   1.343       .  A
C335        C363   1.468       .  S
C335       C1049   1.514       .  S
C335        N339   1.366       .  A
N336        C351   1.318       .  A
N336       Co358   2.024       .  S
C337        C340   1.478       .  S
C337        N365   1.355       .  A
C337        H371   1.082       .  S
C340        C605   1.521       .  S
C340        N361   1.363       .  A
N341        N347   1.328       .  A
N342        C368   1.315       .  A
N342        N344   1.318       .  A
N342       Co358   2.019       .  S
N343        C357   1.360       .  A
N344        N372   1.326       .  A
N344       Co362   2.065       .  S
H345        C368   1.082       .  S
H346        C363   1.082       .  S
N348       Co362   2.061       .  S
N349        N361   1.337       .  A
N349        N365   1.321       .  A
N349       Co358   2.131       .  S
C350        C364   1.464       .  S
C350        C466   1.452       .  S
C350        N354   1.340       .  A
C351        C370   1.444       .  S
C351        H355   1.080       .  S
N352        C363   1.341       .  A
N352       Co362   2.105       .  S
C356        C368   1.439       .  S
C356       C3077   1.437       .  S
C356        N372   1.352       .  A
Co358      Cl369   2.451       .  S
N359        C370   1.347       .  A
C360        C388   1.457       .  S
Co362      Cl369   2.436       .  S
C370       C3534   1.426       .  S
C373        C410   1.429       .  S
C373       C3477   1.418       .  S
C373        N391   1.352       .  A
N374        N391   1.317       .  A
N374        N396   1.320       .  A
N374       Co411   2.085       .  S
C375        C413   1.511       .  S
C375        N400   1.379       .  A
C375        H420   1.081       .  S
H376        C417   1.081       .  S
C377        C381   1.456       .  S
C377        N401   1.323       .  A
C377        H406   1.083       .  S
Co378       N396   2.001       .  S
Co378       N386   2.085       .  S
Co378       N418   2.027       .  S
Co378       N394   2.046       .  S
Co378      Cl422   2.434       .  S
N379        C417   1.367       .  A
N379        N386   1.320       .  A
N379       Co380   2.182       .  S
Co380       N383   2.106       .  S
Co380       N400   2.175       .  S
Co380       N387   2.102       .  S
Co380      Cl422   2.511       .  S
C381        C456   1.464       .  S
C381        N419   1.355       .  A
N382        N389   1.323       .  A
N382        N412   1.338       .  A
N382       Co415   2.122       .  S
N383        N401   1.326       .  A
N383        N419   1.329       .  A
N384        C413   1.336       .  A
N384        N394   1.318       .  A
H385        C410   1.082       .  S
N386        N407   1.326       .  A
N387        N405   1.333       .  A
N387        N392   1.332       .  A
C388        C416   1.444       .  S
C388        N392   1.352       .  A
N389        C404   1.361       .  A
N389       Co411   2.158       .  S
C390        C393   1.417       .  S
C390        N418   1.320       .  A
C390        H424   1.073       .  S
C393       C3217   1.415       .  S
C393        N414   1.354       .  A
N394        N400   1.306       .  A
N395        C421   1.352       .  A
N395        N397   1.314       .  A
N395       Co411   2.105       .  S
N396        C410   1.321       .  A
N397        N425   1.340       .  A
N397       Co415   2.127       .  S
H398        C421   1.082       .  S
H399        C416   1.081       .  S
N401       Co415   2.083       .  S
N402        N414   1.321       .  A
N402        N418   1.324       .  A
N402       Co411   2.096       .  S
C403        C417   1.494       .  S
C403        C752   1.520       .  S
C403        N407   1.352       .  A
C404        C423   1.486       .  S
C404        H408   1.081       .  S
N405        C416   1.322       .  A
N405       Co415   2.092       .  S
C409        C421   1.472       .  S
C409        C585   1.522       .  S
C409        N425   1.364       .  A
Co411      Cl422   2.480       .  S
N412        C423   1.360       .  A
C413       C1092   1.525       .  S
Co415      Cl422   2.424       .  S
C423        C582   1.533       .  S
C426        C463   1.483       .  S
C426        C568   1.519       .  S
C426        N444   1.356       .  A
N427        N444   1.334       .  A
N427        N449   1.315       .  A
N427       Co464   2.099       .  S
C428        C466   1.467       .  S
C428        N453   1.351       .  A
C428        H473   1.081       .  S
H429        C470   1.081       .  S
C430        C434   1.464       .  S
C430        N454   1.342       .  A
C430        H459   1.081       .  S
Co431       N449   2.137       .  S
Co431       N439   2.074       .  S
Co431       N471   2.138       .  S
Co431       N447   2.080       .  S
Co431      Cl475   2.427       .  S
N432        C470   1.353       .  A
N432        N439   1.328       .  A
N432       Co433   2.110       .  S
Co433       N436   2.165       .  S
Co433       N453   2.107       .  S
Co433       N440   2.196       .  S
Co433      Cl475   2.517       .  S
C434        C653   1.535       .  S
C434        N472   1.375       .  A
N435        N442   1.322       .  A
N435        N465   1.315       .  A
N435       Co468   2.030       .  S
N436        N454   1.318       .  A
N436        N472   1.350       .  A
N437        C466   1.338       .  A
N437        N447   1.309       .  A
H438        C463   1.081       .  S
N439        N460   1.308       .  A
N440        N458   1.321       .  A
N440        N445   1.350       .  A
C441        C469   1.461       .  S
C441       C2639   1.532       .  S
C441        N445   1.378       .  A
N442        C457   1.328       .  A
N442       Co464   2.058       .  S
C443        C446   1.483       .  S
C443        N471   1.359       .  A
C443        H477   1.082       .  S
C446        C499   1.524       .  S
C446        N467   1.358       .  A
N447        N453   1.330       .  A
N448        C474   1.309       .  A
N448        N450   1.317       .  A
N448       Co464   2.026       .  S
N449        C463   1.358       .  A
N450        N478   1.327       .  A
N450       Co468   2.082       .  S
H451        C474   1.081       .  S
H452        C469   1.082       .  S
N454       Co468   2.116       .  S
N455        N467   1.336       .  A
N455        N471   1.316       .  A
N455       Co464   2.112       .  S
C456        C470   1.470       .  S
C456        N460   1.339       .  A
C457        C476   1.446       .  S
C457        H461   1.080       .  S
N458        C469   1.340       .  A
N458       Co468   2.086       .  S
C462        C474   1.443       .  S
C462       C2967   1.460       .  S
C462        N478   1.358       .  A
Co464      Cl475   2.455       .  S
N465        C476   1.332       .  A
Co468      Cl475   2.454       .  S
C476       C3354   1.428       .  S
C479        C516   1.469       .  S
C479        N497   1.357       .  A
N480        N497   1.334       .  A
N480        N502   1.321       .  A
N480       Co517   2.108       .  S
C481        C519   1.479       .  S
C481        N506   1.359       .  A
C481        H526   1.081       .  S
H482        C523   1.081       .  S
C483        C487   1.451       .  S
C483        N507   1.336       .  A
C483        H512   1.081       .  S
Co484       N502   2.111       .  S
Co484       N492   2.092       .  S
Co484       N524   2.132       .  S
Co484       N500   2.063       .  S
Co484      Cl528   2.413       .  S
N485        C523   1.353       .  A
N485        N492   1.328       .  A
N485       Co486   2.105       .  S
Co486       N489   2.207       .  S
Co486       N506   2.136       .  S
Co486       N493   2.178       .  S
Co486      Cl528   2.530       .  S
C487        C865   1.530   1_655  S
C487        N525   1.382       .  A
N488        N495   1.324       .  A
N488        N518   1.319       .  A
N488       Co521   2.052       .  S
N489        N507   1.318       .  A
N489        N525   1.351       .  A
N490        C519   1.334       .  A
N490        N500   1.309       .  A
H491        C516   1.082       .  S
N492        N513   1.310       .  A
N493        N511   1.317       .  A
N493        N498   1.350       .  A
C494        C522   1.457       .  S
C494       C1155   1.533   1_545  S
C494        N498   1.379       .  A
N495        C510   1.332       .  A
N495       Co517   2.078       .  S
C496        C499   1.481       .  S
C496        N524   1.358       .  A
C496        H530   1.082       .  S
C499        N520   1.359       .  A
N500        N506   1.328       .  A
N501        C527   1.319       .  A
N501        N503   1.321       .  A
N501       Co517   2.044       .  S
N502        C516   1.354       .  A
N503        N531   1.312       .  A
N503       Co521   2.005       .  S
H504        C527   1.082       .  S
H505        C522   1.081       .  S
N507       Co521   2.060       .  S
N508        N520   1.336       .  A
N508        N524   1.317       .  A
N508       Co517   2.117       .  S
C509        C523   1.468       .  S
C509        C625   1.464       .  S
C509        N513   1.344       .  A
C510        C529   1.458       .  S
C510        H514   1.082       .  S
N511        C522   1.341       .  A
N511       Co521   2.094       .  S
C515        C527   1.445       .  S
C515       C2954   1.403       .  S
C515        N531   1.327       .  A
Co517      Cl528   2.470       .  S
N518        C529   1.339       .  A
C519        C547   1.470       .  S
Co521      Cl528   2.425       .  S
C529       C3544   1.460       .  S
C532        C569   1.437       .  S
C532       C3487   1.441       .  S
C532        N550   1.346       .  A
N533        N550   1.316       .  A
N533        N555   1.322       .  A
N533       Co570   2.078       .  S
C534        C572   1.504       .  S
C534        N559   1.374       .  A
C534        H579   1.081       .  S
H535        C576   1.081       .  S
C536        C540   1.446       .  S
C536        N560   1.321       .  A
C536        H565   1.082       .  S
Co537       N555   2.039       .  S
Co537       N545   2.082       .  S
Co537       N577   2.033       .  S
Co537       N553   2.095       .  S
Co537      Cl581   2.457       .  S
N538        C576   1.368       .  A
N538        N545   1.317       .  A
N538       Co539   2.163       .  S
Co539       N542   2.104       .  S
Co539       N559   2.189       .  S
Co539       N546   2.101       .  S
Co539      Cl581   2.509       .  S
C540        C615   1.452       .  S
C540        N578   1.355       .  A
N541        N548   1.317       .  A
N541        N571   1.342       .  A
N541       Co574   2.159       .  S
N542        N560   1.326       .  A
N542        N578   1.328       .  A
N543        C572   1.347       .  A
N543        N553   1.327       .  A
H544        C569   1.078       .  S
N545        N566   1.324       .  A
N546        N564   1.330       .  A
N546        N551   1.333       .  A
C547        C575   1.458       .  S
C547        N551   1.353       .  A
N548        C563   1.355       .  A
N548       Co570   2.115       .  S
C549        C552   1.429       .  S
C549        N577   1.328       .  A
C549        H583   1.077       .  S
C552       C3367   1.425       .  S
C552        N573   1.346       .  A
N553        N559   1.318       .  A
N554        C580   1.355       .  A
N554        N556   1.318       .  A
N554       Co570   2.128       .  S
N555        C569   1.335       .  A
N556        N584   1.336       .  A
N556       Co574   2.115       .  S
H557        C580   1.082       .  S
H558        C575   1.082       .  S
N560       Co574   2.065       .  S
N561        N573   1.318       .  A
N561        N577   1.323       .  A
N561       Co570   2.073       .  S
C562        C576   1.492       .  S
C562       C2745   1.514   1_556  S
C562        N566   1.348       .  A
C563        C582   1.474       .  S
C563        H567   1.082       .  S
N564        C575   1.327       .  A
N564       Co574   2.109       .  S
C568        C580   1.476       .  S
C568        N584   1.360       .  A
Co570      Cl581   2.464       .  S
N571        C582   1.370       .  A
C572       C1251   1.534   1_545  S
Co574      Cl581   2.434       .  S
C585        C622   1.489       .  S
C585        N603   1.353       .  A
N586        N603   1.333       .  A
N586        N608   1.310       .  A
N586       Co623   2.099       .  S
C587        C625   1.475       .  S
C587        N612   1.355       .  A
C587        H632   1.081       .  S
H588        C629   1.081       .  S
C589        C593   1.456       .  S
C589        N613   1.334       .  A
C589        H618   1.081       .  S
Co590       N608   2.134       .  S
Co590       N598   2.102       .  S
Co590       N630   2.135       .  S
Co590       N606   2.071       .  S
Co590      Cl634   2.428       .  S
N591        C629   1.347       .  A
N591        N598   1.333       .  A
N591       Co592   2.093       .  S
Co592       N595   2.192       .  S
Co592       N612   2.125       .  S
Co592       N599   2.144       .  S
Co592      Cl634   2.506       .  S
C593       C2826   1.531   1_556  S
C593        N631   1.381       .  A
N594        N601   1.312       .  A
N594        N624   1.327       .  A
N594       Co627   2.091       .  S
N595        N613   1.313       .  A
N595        N631   1.351       .  A
N596        C625   1.337       .  A
N596        N606   1.308       .  A
H597        C622   1.081       .  S
N598        N619   1.310       .  A
N599        N617   1.322       .  A
N599        N604   1.344       .  A
C600        C628   1.476       .  S
C600        C837   1.536   1_655  S
C600        N604   1.369       .  A
N601        C616   1.304       .  A
N601       Co623   2.032       .  S
C602        C605   1.480       .  S
C602        N630   1.356       .  A
C602        H636   1.082       .  S
C605        N626   1.361       .  A
N606        N612   1.328       .  A
N607        C633   1.337       .  A
N607        N609   1.322       .  A
N607       Co623   2.095       .  S
N608        C622   1.363       .  A
N609        N637   1.306       .  A
N609       Co627   1.987       .  S
H610        C633   1.081       .  S
H611        C628   1.081       .  S
N613       Co627   2.055       .  S
N614        N626   1.336       .  A
N614        N630   1.317       .  A
N614       Co623   2.106       .  S
C615        C629   1.458       .  S
C615        N619   1.342       .  A
C616        C635   1.441       .  S
C616        H620   1.063       .  S
N617        C628   1.354       .  A
N617       Co627   2.157       .  S
C621        C633   1.462       .  S
C621       C3087   1.416       .  S
C621        N637   1.320       .  A
Co623      Cl634   2.450       .  S
N624        C635   1.368       .  A
Co627      Cl634   2.448       .  S
C635       C3224   1.479       .  S
C638        C675   1.475       .  S
C638        C850   1.503       .  S
C638        N656   1.353       .  A
N639        N656   1.330       .  A
N639        N661   1.316       .  A
N639       Co676   2.094       .  S
C640        C678   1.473       .  S
C640        N665   1.350       .  A
C640        H685   1.081       .  S
H641        C682   1.081       .  S
C642        C646   1.458       .  S
C642        N666   1.335       .  A
C642        H671   1.080       .  S
Co643       N661   2.112       .  S
Co643       N651   2.109       .  S
Co643       N683   2.134       .  S
Co643       N659   2.074       .  S
Co643      Cl687   2.417       .  S
N644        C682   1.358       .  A
N644        N651   1.333       .  A
N644       Co645   2.128       .  S
Co645       N648   2.192       .  S
Co645       N665   2.116       .  S
Co645       N652   2.188       .  S
Co645      Cl687   2.518       .  S
C646       C2349   1.539       .  S
C646        N684   1.382       .  A
N647        N654   1.321       .  A
N647        N677   1.317       .  A
N647       Co680   2.047       .  S
N648        N666   1.317       .  A
N648        N684   1.354       .  A
N649        C678   1.337       .  A
N649        N659   1.307       .  A
H650        C675   1.081       .  S
N651        N672   1.315       .  A
N652        N670   1.318       .  A
N652        N657   1.351       .  A
C653        C681   1.461       .  S
C653        N657   1.379       .  A
N654        C669   1.318       .  A
N654       Co676   2.029       .  S
C655        C658   1.483       .  S
C655        N683   1.359       .  A
C655        H689   1.081       .  S
C658        C923   1.521       .  S
C658        N679   1.356       .  A
N659        N665   1.328       .  A
N660        C686   1.318       .  A
N660        N662   1.323       .  A
N660       Co676   2.046       .  S
N661        C675   1.356       .  A
N662        N690   1.323       .  A
N662       Co680   2.052       .  S
H663        C686   1.082       .  S
H664        C681   1.081       .  S
N666       Co680   2.084       .  S
N667        N679   1.334       .  A
N667        N683   1.315       .  A
N667       Co676   2.093       .  S
C668        C682   1.473       .  S
C668        C699   1.477       .  S
C668        N672   1.342       .  A
C669        C688   1.435       .  S
C669        H673   1.082       .  S
N670        C681   1.339       .  A
N670       Co680   2.088       .  S
C674        C686   1.438       .  S
C674       C3337   1.427       .  S
C674        N690   1.340       .  A
Co676      Cl687   2.471       .  S
N677        C688   1.340       .  A
C678        C774   1.455       .  S
Co680      Cl687   2.436       .  S
C688       C3654   1.413       .  S
C691        C728   1.488       .  S
C691       C3594   1.450       .  S
C691        N709   1.322       .  A
N692        N709   1.297       .  A
N692        N714   1.317       .  A
N692       Co729   2.005       .  S
C693        C731   1.497       .  S
C693        N718   1.372       .  A
C693        H738   1.081       .  S
H694        C735   1.081       .  S
C695        C699   1.447       .  S
C695        N719   1.327       .  A
C695        H724   1.082       .  S
Co696       N714   2.120       .  S
Co696       N704   2.063       .  S
Co696       N736   1.988       .  S
Co696       N712   2.163       .  S
Co696      Cl740   2.473       .  S
N697        C735   1.375       .  A
N697        N704   1.320       .  A
N697       Co698   2.209       .  S
Co698       N701   2.133       .  S
Co698       N718   2.180       .  S
Co698       N705   2.128       .  S
Co698      Cl740   2.509       .  S
C699        N737   1.360       .  A
N700        N707   1.311       .  A
N700        N730   1.340       .  A
N700       Co733   2.132       .  S
N701        N719   1.333       .  A
N701        N737   1.337       .  A
N702        C731   1.368       .  A
N702        N712   1.339       .  A
H703        C728   1.081       .  S
N704        N725   1.327       .  A
N705        N723   1.326       .  A
N705        N710   1.332       .  A
C706        C734   1.451       .  S
C706        C784   1.470       .  S
C706        N710   1.361       .  A
N707        C722   1.352       .  A
N707       Co729   2.109       .  S
C708        C711   1.424       .  S
C708        N736   1.326       .  A
C708        H742   1.081       .  S
C711       C3097   1.416       .  S
C711        N732   1.351       .  A
N712        N718   1.323       .  A
N713        C739   1.356       .  A
N713        N715   1.318       .  A
N713       Co729   2.110       .  S
N714        C728   1.354       .  A
N715        N743   1.341       .  A
N715       Co733   2.157       .  S
H716        C739   1.082       .  S
H717        C734   1.083       .  S
N719       Co733   2.101       .  S
N720        N732   1.313       .  A
N720        N736   1.320       .  A
N720       Co729   2.090       .  S
C721        C735   1.507       .  S
C721       C2268   1.533       .  S
C721        N725   1.345       .  A
C722        C741   1.468       .  S
C722        H726   1.082       .  S
N723        C734   1.321       .  A
N723       Co733   2.071       .  S
C727        C739   1.477       .  S
C727        C833   1.534       .  S
C727        N743   1.368       .  A
Co729      Cl740   2.434       .  S
N730        C741   1.369       .  A
C731       C1395   1.558       .  S
Co733      Cl740   2.444       .  S
C741        C870   1.521       .  S
C744        C781   1.487       .  S
C744        C903   1.510       .  S
C744        N762   1.347       .  A
N745        N762   1.330       .  A
N745        N767   1.315       .  A
N745       Co782   2.084       .  S
C746        C784   1.467       .  S
C746        N771   1.355       .  A
C746        H791   1.081       .  S
H747        C788   1.081       .  S
C748        C752   1.461       .  S
C748        N772   1.342       .  A
C748        H777   1.082       .  S
Co749       N767   2.138       .  S
Co749       N757   2.086       .  S
Co749       N789   2.135       .  S
Co749       N765   2.087       .  S
Co749      Cl793   2.438       .  S
N750        C788   1.350       .  A
N750        N757   1.328       .  A
N750       Co751   2.089       .  S
Co751       N754   2.159       .  S
Co751       N771   2.106       .  S
Co751       N758   2.168       .  S
Co751      Cl793   2.509       .  S
C752        N790   1.371       .  A
N753        N760   1.321       .  A
N753        N783   1.323       .  A
N753       Co786   2.041       .  S
N754        N772   1.317       .  A
N754        N790   1.346       .  A
N755        C784   1.342       .  A
N755        N765   1.309       .  A
H756        C781   1.081       .  S
N757        N778   1.309       .  A
N758        N776   1.319       .  A
N758        N763   1.347       .  A
C759        C787   1.453       .  S
C759       C1335   1.513       .  S
C759        N763   1.374       .  A
N760        C775   1.313       .  A
N760       Co782   2.031       .  S
C761        C764   1.479       .  S
C761        N789   1.360       .  A
C761        H795   1.081       .  S
C764        C847   1.520       .  S
C764        N785   1.357       .  A
N765        N771   1.328       .  A
N766        C792   1.311       .  A
N766        N768   1.320       .  A
N766       Co782   2.035       .  S
N767        C781   1.361       .  A
N768        N796   1.326       .  A
N768       Co786   2.056       .  S
H769        C792   1.082       .  S
H770        C787   1.080       .  S
N772       Co786   2.095       .  S
N773        N785   1.334       .  A
N773        N789   1.321       .  A
N773       Co782   2.112       .  S
C774        C788   1.460       .  S
C774        N778   1.344       .  A
C775        C794   1.428       .  S
C775        H779   1.078       .  S
N776        C787   1.330       .  A
N776       Co786   2.072       .  S
C780        C792   1.448       .  S
C780       C3397   1.446       .  S
C780        N796   1.345       .  A
Co782      Cl793   2.439       .  S
N783        C794   1.342       .  A
Co786      Cl793   2.458       .  S
C794       C3457   1.414       .  S
C797        C834   1.475       .  S
C797       C3404   1.450       .  S
C797        N815   1.337       .  A
N798        N815   1.299       .  A
N798        N820   1.315       .  A
N798       Co835   2.031       .  S
C799        C837   1.492       .  S
C799        N824   1.366       .  A
C799        H844   1.082       .  S
H800        C841   1.081       .  S
C801        C805   1.443       .  S
C801        N825   1.323       .  A
C801        H830   1.082       .  S
Co802       N820   2.075       .  S
Co802       N810   2.070       .  S
Co802       N842   2.045       .  S
Co802       N818   2.126       .  S
Co802      Cl846   2.481       .  S
N803        C841   1.374       .  A
N803        N810   1.317       .  A
N803       Co804   2.183       .  S
Co804       N807   2.125       .  S
Co804       N824   2.184       .  S
Co804       N811   2.114       .  S
Co804      Cl846   2.491       .  S
C805        C933   1.468       .  S
C805        N843   1.358       .  A
N806        N813   1.309       .  A
N806        N836   1.343       .  A
N806       Co839   2.142       .  S
N807        N825   1.332       .  A
N807        N843   1.336       .  A
N808        C837   1.360       .  A
N808        N818   1.335       .  A
H809        C834   1.082       .  S
N810        N831   1.324       .  A
N811        N829   1.325       .  A
N811        N816   1.331       .  A
C812        C840   1.456       .  S
C812        C890   1.470       .  S
C812        N816   1.358       .  A
N813        C828   1.346       .  A
N813       Co835   2.071       .  S
C814        C817   1.458       .  S
C814        N842   1.346       .  A
C814        H848   1.081       .  S
C817       C3107   1.445       .  S
C817        N838   1.343       .  A
N818        N824   1.325       .  A
N819        C845   1.359       .  A
N819        N821   1.322       .  A
N819       Co835   2.148       .  S
N820        C834   1.343       .  A
N821        N849   1.339       .  A
N821       Co839   2.131       .  S
H822        C845   1.081       .  S
H823        C840   1.083       .  S
N825       Co839   2.090       .  S
N826        N838   1.303       .  A
N826        N842   1.319       .  A
N826       Co835   2.050       .  S
C827        C841   1.503       .  S
C827       C2533   1.526   1_556  S
C827        N831   1.346       .  A
C828        C847   1.458       .  S
C828        H832   1.082       .  S
N829        C840   1.323       .  A
N829       Co839   2.081       .  S
C833        C845   1.483       .  S
C833        N849   1.363       .  A
Co835      Cl846   2.410       .  S
N836        C847   1.371       .  A
Co839      Cl846   2.455       .  S
C850        C887   1.484       .  S
C850        N868   1.345       .  A
N851        N868   1.327       .  A
N851        N873   1.313       .  A
N851       Co888   2.060       .  S
C852        C890   1.470       .  S
C852        N877   1.354       .  A
C852        H897   1.081       .  S
H853        C894   1.081       .  S
C854        C858   1.452       .  S
C854        N878   1.333       .  A
C854        H883   1.082       .  S
Co855       N873   2.130       .  S
Co855       N863   2.080       .  S
Co855       N895   2.121       .  S
Co855       N871   2.072       .  S
Co855      Cl899   2.432       .  S
N856        C894   1.353       .  A
N856        N863   1.330       .  A
N856       Co857   2.108       .  S
Co857       N860   2.174       .  S
Co857       N877   2.108       .  S
Co857       N864   2.155       .  S
Co857      Cl899   2.519       .  S
C858       C1463   1.525   1_545  S
C858        N896   1.379       .  A
N859        N866   1.318       .  A
N859        N889   1.321       .  A
N859       Co892   2.070       .  S
N860        N878   1.315       .  A
N860        N896   1.352       .  A
N861        C890   1.342       .  A
N861        N871   1.309       .  A
H862        C887   1.081       .  S
N863        N884   1.309       .  A
N864        N882   1.325       .  A
N864        N869   1.345       .  A
C865        C893   1.476       .  S
C865        N869   1.367       .  A
N866        C881   1.320       .  A
N866       Co888   2.049       .  S
C867        C870   1.474       .  S
C867        N895   1.354       .  A
C867        H901   1.081       .  S
C870        N891   1.364       .  A
N871        N877   1.325       .  A
N872        C898   1.321       .  A
N872        N874   1.321       .  A
N872       Co888   2.022       .  S
N873        C887   1.360       .  A
N874        N902   1.324       .  A
N874       Co892   2.070       .  S
H875        C898   1.082       .  S
H876        C893   1.081       .  S
N878       Co892   2.071       .  S
N879        N891   1.338       .  A
N879        N895   1.321       .  A
N879       Co888   2.141       .  S
C880        C894   1.467       .  S
C880        C943   1.458       .  S
C880        N884   1.339       .  A
C881        C900   1.456       .  S
C881        H885   1.081       .  S
N882        C893   1.346       .  A
N882       Co892   2.137       .  S
C886        C898   1.436       .  S
C886       C3607   1.429       .  S
C886        N902   1.352       .  A
Co888      Cl899   2.448       .  S
N889        C900   1.352       .  A
Co892      Cl899   2.437       .  S
C900       C3667   1.452       .  S
C903        C940   1.472       .  S
C903        N921   1.357       .  A
N904        N921   1.334       .  A
N904        N926   1.320       .  A
N904       Co941   2.111       .  S
C905        C943   1.467       .  S
C905        N930   1.349       .  A
C905        H950   1.081       .  S
H906        C947   1.081       .  S
C907        C911   1.437       .  S
C907        N931   1.325       .  A
C907        H936   1.080       .  S
Co908       N926   2.116       .  S
Co908       N916   2.102       .  S
Co908       N948   2.133       .  S
Co908       N924   2.084       .  S
Co908      Cl952   2.392       .  S
N909        C947   1.356       .  A
N909        N916   1.332       .  A
N909       Co910   2.114       .  S
Co910       N913   2.214       .  S
Co910       N930   2.101       .  S
Co910       N917   2.157       .  S
Co910      Cl952   2.550       .  S
C911       C2455   1.531   1_556  S
C911        N949   1.390       .  A
N912        N919   1.323       .  A
N912        N942   1.314       .  A
N912       Co945   2.047       .  S
N913        N931   1.310       .  A
N913        N949   1.355       .  A
N914        C943   1.342       .  A
N914        N924   1.311       .  A
H915        C940   1.082       .  S
N916        N937   1.311       .  A
N917        N935   1.317       .  A
N917        N922   1.348       .  A
C918        C946   1.466       .  S
C918       C1547   1.534   1_545  S
C918        N922   1.374       .  A
N919        C934   1.330       .  A
N919       Co941   2.068       .  S
C920        C923   1.478       .  S
C920        N948   1.357       .  A
C920        H954   1.082       .  S
C923        N944   1.358       .  A
N924        N930   1.326       .  A
N925        C951   1.338       .  A
N925        N927   1.320       .  A
N925       Co941   2.088       .  S
N926        C940   1.355       .  A
N927        N955   1.306       .  A
N927       Co945   1.978       .  S
H928        C951   1.082       .  S
H929        C946   1.081       .  S
N931       Co945   2.017       .  S
N932        N944   1.336       .  A
N932        N948   1.321       .  A
N932       Co941   2.114       .  S
C933        C947   1.471       .  S
C933        N937   1.340       .  A
C934        C953   1.461       .  S
C934        H938   1.082       .  S
N935        C946   1.344       .  A
N935       Co945   2.116       .  S
C939        C951   1.464       .  S
C939       C3344   1.413       .  S
C939        N955   1.319       .  A
Co941      Cl952   2.488       .  S
N942        C953   1.336       .  A
Co945      Cl952   2.378       .  S
C953       C3467   1.465       .  S
C956        C993   1.456       .  S
C956       C3317   1.477       .  S
C956        N974   1.346       .  A
N957        N974   1.317       .  A
N957        N979   1.327       .  A
N957       Co994   2.082       .  S
C958        C996   1.503       .  S
C958        N983   1.376       .  A
C958       H1003   1.081       .  S
H959       C1000   1.081       .  S
C960        C964   1.454       .  S
C960        N984   1.320       .  A
C960        H989   1.079       .  S
Co961       N979   2.072       .  S
Co961       N969   2.063       .  S
Co961      N1001   1.981       .  S
Co961       N977   2.116       .  S
Co961     Cl1005   2.416       .  S
N962       C1000   1.373       .  A
N962        N969   1.317       .  A
N962       Co963   2.178       .  S
Co963       N966   2.098       .  S
Co963       N983   2.171       .  S
Co963       N970   2.108       .  S
Co963     Cl1005   2.538       .  S
C964       C1077   1.468       .  S
C964       N1002   1.355       .  A
N965        N972   1.319       .  A
N965        N995   1.338       .  A
N965       Co998   2.123       .  S
N966        N984   1.327       .  A
N966       N1002   1.332       .  A
N967        C996   1.355       .  A
N967        N977   1.329       .  A
H968        C993   1.079       .  S
N969        N990   1.320       .  A
N970        N988   1.325       .  A
N970        N975   1.332       .  A
C971        C999   1.449       .  S
C971       C1017   1.468       .  S
C971        N975   1.358       .  A
N972        C987   1.358       .  A
N972       Co994   2.136       .  S
C973        C976   1.413       .  S
C973       N1001   1.323       .  A
C973       H1007   1.081       .  S
C976       C2944   1.406       .  S
C976        N997   1.350       .  A
N977        N983   1.316       .  A
N978       C1004   1.360       .  A
N978        N980   1.318       .  A
N978       Co994   2.144       .  S
N979        C993   1.338       .  A
N980       N1008   1.340       .  A
N980       Co998   2.129       .  S
H981       C1004   1.081       .  S
H982        C999   1.080       .  S
N984       Co998   2.085       .  S
N985        N997   1.311       .  A
N985       N1001   1.323       .  A
N985       Co994   2.088       .  S
C986       C1000   1.500       .  S
C986       C1314   1.518       .  S
C986        N990   1.347       .  A
C987       C1006   1.480       .  S
C987        H991   1.082       .  S
N988        C999   1.319       .  A
N988       Co998   2.072       .  S
C992       C1004   1.482       .  S
C992       C1151   1.537       .  S
C992       N1008   1.364       .  A
Co994     Cl1005   2.474       .  S
N995       C1006   1.361       .  A
C996       C1978   1.543       .  S
Co998     Cl1005   2.416       .  S
C1006      C1271   1.526       .  S
C1009      C1046   1.434       .  S
C1009      C3157   1.396       .  S
C1009      N1027   1.337       .  A
N1010      N1027   1.305       .  A
N1010      N1032   1.318       .  A
N1010     Co1047   2.037       .  S
C1011      C1049   1.497       .  S
C1011      N1036   1.370       .  A
C1011      H1056   1.081       .  S
H1012      C1053   1.081       .  S
C1013      C1017   1.450       .  S
C1013      N1037   1.319       .  A
C1013      H1042   1.079       .  S
Co1014     N1032   2.011       .  S
Co1014     N1022   2.075       .  S
Co1014     N1054   2.021       .  S
Co1014     N1030   2.072       .  S
Co1014    Cl1058   2.443       .  S
N1015      C1053   1.372       .  A
N1015      N1022   1.317       .  A
N1015     Co1016   2.187       .  S
Co1016     N1019   2.100       .  S
Co1016     N1036   2.173       .  S
Co1016     N1023   2.106       .  S
Co1016    Cl1058   2.516       .  S
C1017      N1055   1.356       .  A
N1018      N1025   1.316       .  A
N1018      N1048   1.337       .  A
N1018     Co1051   2.117       .  S
N1019      N1037   1.327       .  A
N1019      N1055   1.333       .  A
N1020      C1049   1.343       .  A
N1020      N1030   1.322       .  A
H1021      C1046   1.080       .  S
N1022      N1043   1.325       .  A
N1023      N1041   1.323       .  A
N1023      N1028   1.331       .  A
C1024      C1052   1.449       .  S
C1024      C1070   1.465       .  S
C1024      N1028   1.359       .  A
N1025      C1040   1.352       .  A
N1025     Co1047   2.120       .  S
C1026      C1029   1.422       .  S
C1026      N1054   1.324       .  A
C1026      H1060   1.080       .  S
C1029      C3057   1.417       .  S
C1029      N1050   1.345       .  A
N1030      N1036   1.317       .  A
N1031      C1057   1.353       .  A
N1031      N1033   1.317       .  A
N1031     Co1047   2.105       .  S
N1032      C1046   1.327       .  A
N1033      N1061   1.338       .  A
N1033     Co1051   2.130       .  S
H1034      C1057   1.082       .  S
H1035      C1052   1.079       .  S
N1037     Co1051   2.082       .  S
N1038      N1050   1.319       .  A
N1038      N1054   1.323       .  A
N1038     Co1047   2.078       .  S
C1039      C1053   1.502       .  S
C1039      C1950   1.525       .  S
C1039      N1043   1.345       .  A
C1040      C1059   1.472       .  S
C1040      H1044   1.082       .  S
N1041      C1052   1.315       .  A
N1041     Co1051   2.064       .  S
C1045      C1057   1.472       .  S
C1045      C1204   1.519       .  S
C1045      N1061   1.362       .  A
Co1047    Cl1058   2.454       .  S
N1048      C1059   1.362       .  A
Co1051    Cl1058   2.415       .  S
C1059      C1165   1.515       .  S
C1062      C1099   1.496       .  S
C1062      C3237   1.481       .  S
C1062      N1080   1.320       .  A
N1063      N1080   1.298       .  A
N1063      N1085   1.320       .  A
N1063     Co1100   2.024       .  S
C1064      C1102   1.497       .  S
C1064      N1089   1.373       .  A
C1064      H1109   1.081       .  S
H1065      C1106   1.081       .  S
C1066      C1070   1.451       .  S
C1066      N1090   1.315       .  A
C1066      H1095   1.079       .  S
Co1067     N1085   2.144       .  S
Co1067     N1075   2.103       .  S
Co1067     N1107   1.990       .  S
Co1067     N1083   2.189       .  S
Co1067    Cl1111   2.475       .  S
N1068      C1106   1.371       .  A
N1068      N1075   1.320       .  A
N1068     Co1069   2.166       .  S
Co1069     N1072   2.099       .  S
Co1069     N1089   2.171       .  S
Co1069     N1076   2.111       .  S
Co1069    Cl1111   2.513       .  S
C1070      N1108   1.354       .  A
N1071      N1078   1.309       .  A
N1071      N1101   1.343       .  A
N1071     Co1104   2.146       .  S
N1072      N1090   1.328       .  A
N1072      N1108   1.332       .  A
N1073      C1102   1.373       .  A
N1073      N1083   1.341       .  A
H1074      C1099   1.081       .  S
N1075      N1096   1.325       .  A
N1076      N1094   1.324       .  A
N1076      N1081   1.332       .  A
C1077      C1105   1.448       .  S
C1077      N1081   1.359       .  A
N1078      C1093   1.349       .  A
N1078     Co1100   2.087       .  S
C1079      C1082   1.430       .  S
C1079      N1107   1.321       .  A
C1079      H1113   1.082       .  S
C1082      C2977   1.409       .  S
C1082      N1103   1.347       .  A
N1083      N1089   1.323       .  A
N1084      C1110   1.358       .  A
N1084      N1086   1.318       .  A
N1084     Co1100   2.134       .  S
N1085      C1099   1.361       .  A
N1086      N1114   1.338       .  A
N1086     Co1104   2.123       .  S
H1087      C1110   1.081       .  S
H1088      C1105   1.079       .  S
N1090     Co1104   2.076       .  S
N1091      N1103   1.311       .  A
N1091      N1107   1.320       .  A
N1091     Co1100   2.075       .  S
C1092      C1106   1.493       .  S
C1092      N1096   1.356       .  A
C1093      C1112   1.461       .  S
C1093      H1097   1.081       .  S
N1094      C1105   1.317       .  A
N1094     Co1104   2.067       .  S
C1098      C1110   1.482       .  S
C1098      C1257   1.529       .  S
C1098      N1114   1.361       .  A
Co1100    Cl1111   2.420       .  S
N1101      C1112   1.373       .  A
C1102      C1342   1.567       .  S
Co1104    Cl1111   2.445       .  S
C1112      C1218   1.526       .  S
C1115      C1152   1.464       .  S
C1115      C3167   1.442       .  S
C1115      N1133   1.335       .  A
N1116      N1133   1.305       .  A
N1116      N1138   1.320       .  A
N1116     Co1153   2.050       .  S
C1117      C1155   1.495       .  S
C1117      N1142   1.370       .  A
C1117      H1162   1.081       .  S
H1118      C1159   1.081       .  S
C1119      C1123   1.451       .  S
C1119      N1143   1.317       .  A
C1119      H1148   1.079       .  S
Co1120     N1138   2.062       .  S
Co1120     N1128   2.117       .  S
Co1120     N1160   2.069       .  S
Co1120     N1136   2.121       .  S
Co1120    Cl1164   2.472       .  S
N1121      C1159   1.374       .  A
N1121      N1128   1.321       .  A
N1121     Co1122   2.195       .  S
Co1122     N1125   2.100       .  S
Co1122     N1142   2.177       .  S
Co1122     N1129   2.144       .  S
Co1122    Cl1164   2.514       .  S
C1123      C1183   1.469       .  S
C1123      N1161   1.356       .  A
N1124      N1131   1.312       .  A
N1124      N1154   1.338       .  A
N1124     Co1157   2.124       .  S
N1125      N1143   1.327       .  A
N1125      N1161   1.333       .  A
N1126      C1155   1.357       .  A
N1126      N1136   1.329       .  A
H1127      C1152   1.082       .  S
N1128      N1149   1.334       .  A
N1129      N1147   1.325       .  A
N1129      N1134   1.337       .  A
C1130      C1158   1.443       .  S
C1130      C1229   1.480       .  S
C1130      N1134   1.367       .  A
N1131      C1146   1.350       .  A
N1131     Co1153   2.102       .  S
C1132      C1135   1.456       .  S
C1132      N1160   1.343       .  A
C1132      H1166   1.082       .  S
C1135      C2934   1.458       .  S
C1135      N1156   1.336       .  A
N1136      N1142   1.324       .  A
N1137      C1163   1.358       .  A
N1137      N1139   1.314       .  A
N1137     Co1153   2.121       .  S
N1138      C1152   1.343       .  A
N1139      N1167   1.341       .  A
N1139     Co1157   2.140       .  S
H1140      C1163   1.081       .  S
H1141      C1158   1.079       .  S
N1143     Co1157   2.083       .  S
N1144      N1156   1.307       .  A
N1144      N1160   1.324       .  A
N1144     Co1153   2.059       .  S
C1145      C1159   1.502       .  S
C1145      C1473   1.549   1_655  S
C1145      N1149   1.358       .  A
C1146      C1165   1.467       .  S
C1146      H1150   1.082       .  S
N1147      C1158   1.315       .  A
N1147     Co1157   2.060       .  S
C1151      C1163   1.479       .  S
C1151      N1167   1.367       .  A
Co1153    Cl1164   2.425       .  S
N1154      C1165   1.365       .  A
Co1157    Cl1164   2.438       .  S
C1168      C1205   1.423       .  S
C1168      C3247   1.424       .  S
C1168      N1186   1.349       .  A
N1169      N1186   1.315       .  A
N1169      N1191   1.323       .  A
N1169     Co1206   2.081       .  S
C1170      C1208   1.508       .  S
C1170      N1195   1.379       .  A
C1170      H1215   1.081       .  S
H1171      C1212   1.081       .  S
C1172      C1176   1.450       .  S
C1172      N1196   1.316       .  A
C1172      H1201   1.079       .  S
Co1173     N1191   2.008       .  S
Co1173     N1181   2.107       .  S
Co1173     N1213   2.069       .  S
Co1173     N1189   2.075       .  S
Co1173    Cl1217   2.440       .  S
N1174      C1212   1.370       .  A
N1174      N1181   1.321       .  A
N1174     Co1175   2.179       .  S
Co1175     N1178   2.110       .  S
Co1175     N1195   2.191       .  S
Co1175     N1182   2.117       .  S
Co1175    Cl1217   2.528       .  S
C1176      C1236   1.473       .  S
C1176      N1214   1.359       .  A
N1177      N1184   1.321       .  A
N1177      N1207   1.338       .  A
N1177     Co1210   2.123       .  S
N1178      N1196   1.325       .  A
N1178      N1214   1.334       .  A
N1179      C1208   1.349       .  A
N1179      N1189   1.322       .  A
H1180      C1205   1.081       .  S
N1181      N1202   1.330       .  A
N1182      N1200   1.327       .  A
N1182      N1187   1.333       .  A
C1183      C1211   1.447       .  S
C1183      N1187   1.361       .  A
N1184      C1199   1.357       .  A
N1184     Co1206   2.130       .  S
C1185      C1188   1.464       .  S
C1185      N1213   1.343       .  A
C1185      H1219   1.082       .  S
C1188      C3067   1.425       .  S
C1188      N1209   1.330       .  A
N1189      N1195   1.316       .  A
N1190      C1216   1.351       .  A
N1190      N1192   1.313       .  A
N1190     Co1206   2.104       .  S
N1191      C1205   1.328       .  A
N1192      N1220   1.340       .  A
N1192     Co1210   2.128       .  S
H1193      C1216   1.082       .  S
H1194      C1211   1.079       .  S
N1196     Co1210   2.072       .  S
N1197      N1209   1.300       .  A
N1197      N1213   1.320       .  A
N1197     Co1206   2.025       .  S
C1198      C1212   1.497       .  S
C1198      C2162   1.530   1_556  S
C1198      N1202   1.353       .  A
C1199      C1218   1.480       .  S
C1199      H1203   1.082       .  S
N1200      C1211   1.316       .  A
N1200     Co1210   2.074       .  S
C1204      C1216   1.466       .  S
C1204      N1220   1.367       .  A
Co1206    Cl1217   2.452       .  S
N1207      C1218   1.359       .  A
C1208      C1501   1.537   1_655  S
Co1210    Cl1217   2.419       .  S
C1221      C1258   1.459       .  S
C1221      C3324   1.434       .  S
C1221      N1239   1.328       .  A
N1222      N1239   1.306       .  A
N1222      N1244   1.323       .  A
N1222     Co1259   2.031       .  S
C1223      C1261   1.506       .  S
C1223      N1248   1.377       .  A
C1223      H1268   1.081       .  S
H1224      C1265   1.081       .  S
C1225      C1229   1.457       .  S
C1225      N1249   1.320       .  A
C1225      H1254   1.079       .  S
Co1226     N1244   2.085       .  S
Co1226     N1234   2.112       .  S
Co1226     N1266   2.080       .  S
Co1226     N1242   2.111       .  S
Co1226    Cl1270   2.462       .  S
N1227      C1265   1.369       .  A
N1227      N1234   1.321       .  A
N1227     Co1228   2.179       .  S
Co1228     N1231   2.112       .  S
Co1228     N1248   2.188       .  S
Co1228     N1235   2.123       .  S
Co1228    Cl1270   2.505       .  S
C1229      N1267   1.356       .  A
N1230      N1237   1.315       .  A
N1230      N1260   1.340       .  A
N1230     Co1263   2.140       .  S
N1231      N1249   1.331       .  A
N1231      N1267   1.335       .  A
N1232      C1261   1.352       .  A
N1232      N1242   1.328       .  A
H1233      C1258   1.081       .  S
N1234      N1255   1.331       .  A
N1235      N1253   1.329       .  A
N1235      N1240   1.334       .  A
C1236      C1264   1.449       .  S
C1236      N1240   1.360       .  A
N1237      C1252   1.354       .  A
N1237     Co1259   2.119       .  S
C1238      C1241   1.446       .  S
C1238      N1266   1.340       .  A
C1238      H1272   1.076       .  S
C1241      C2987   1.440       .  S
C1241      N1262   1.342       .  A
N1242      N1248   1.317       .  A
N1243      C1269   1.354       .  A
N1243      N1245   1.311       .  A
N1243     Co1259   2.098       .  S
N1244      C1258   1.349       .  A
N1245      N1273   1.341       .  A
N1245     Co1263   2.145       .  S
H1246      C1269   1.082       .  S
H1247      C1264   1.079       .  S
N1249     Co1263   2.098       .  S
N1250      N1262   1.315       .  A
N1250      N1266   1.324       .  A
N1250     Co1259   2.055       .  S
C1251      C1265   1.494       .  S
C1251      N1255   1.358       .  A
C1252      C1271   1.473       .  S
C1252      H1256   1.082       .  S
N1253      C1264   1.316       .  A
N1253     Co1263   2.081       .  S
C1257      C1269   1.472       .  S
C1257      N1273   1.369       .  A
Co1259    Cl1270   2.469       .  S
N1260      C1271   1.368       .  A
C1261      C2084   1.544   1_556  S
Co1263    Cl1270   2.438       .  S
C1274      C1311   1.448       .  S
C1274      C3637   1.437       .  S
C1274      N1292   1.344       .  A
N1275      N1292   1.310       .  A
N1275      N1297   1.318       .  A
N1275     Co1312   2.050       .  S
C1276      C1314   1.502       .  S
C1276      N1301   1.375       .  A
C1276      H1321   1.081       .  S
H1277      C1318   1.081       .  S
C1278      C1282   1.460       .  S
C1278      N1302   1.323       .  A
C1278      H1307   1.083       .  S
Co1279     N1297   2.031       .  S
Co1279     N1287   2.113       .  S
Co1279     N1319   2.054       .  S
Co1279     N1295   2.060       .  S
Co1279    Cl1323   2.461       .  S
N1280      C1318   1.362       .  A
N1280      N1287   1.324       .  A
N1280     Co1281   2.176       .  S
Co1281     N1284   2.101       .  S
Co1281     N1301   2.167       .  S
Co1281     N1288   2.104       .  S
Co1281    Cl1323   2.502       .  S
C1282      C1410   1.468       .  S
C1282      N1320   1.355       .  A
N1283      N1290   1.323       .  A
N1283      N1313   1.339       .  A
N1283     Co1316   2.128       .  S
N1284      N1302   1.325       .  A
N1284      N1320   1.330       .  A
N1285      C1314   1.342       .  A
N1285      N1295   1.319       .  A
H1286      C1311   1.081       .  S
N1287      N1308   1.333       .  A
N1288      N1306   1.330       .  A
N1288      N1293   1.335       .  A
C1289      C1317   1.446       .  S
C1289      C1367   1.463       .  S
C1289      N1293   1.354       .  A
N1290      C1305   1.360       .  A
N1290     Co1312   2.146       .  S
C1291      C1294   1.463       .  S
C1291      N1319   1.340       .  A
C1291      H1325   1.079       .  S
C1294      C3297   1.433       .  S
C1294      N1315   1.340       .  A
N1295      N1301   1.312       .  A
N1296      C1322   1.341       .  A
N1296      N1298   1.310       .  A
N1296     Co1312   2.056       .  S
N1297      C1311   1.332       .  A
N1298      N1326   1.340       .  A
N1298     Co1316   2.140       .  S
H1299      C1322   1.082       .  S
H1300      C1317   1.082       .  S
N1302     Co1316   2.086       .  S
N1303      N1315   1.306       .  A
N1303      N1319   1.316       .  A
N1303     Co1312   2.041       .  S
C1304      C1318   1.488       .  S
C1304      C1738   1.524       .  S
C1304      N1308   1.357       .  A
C1305      C1324   1.483       .  S
C1305      H1309   1.081       .  S
N1306      C1317   1.320       .  A
N1306     Co1316   2.089       .  S
C1310      C1322   1.449       .  S
C1310      C1539   1.503       .  S
C1310      N1326   1.370       .  A
Co1312    Cl1323   2.430       .  S
N1313      C1324   1.361       .  A
Co1316    Cl1323   2.439       .  S
C1324      C1483   1.533       .  S
C1327      C1364   1.482       .  S
C1327      C1486   1.524       .  S
C1327      N1345   1.361       .  A
N1328      N1345   1.336       .  A
N1328      N1350   1.321       .  A
N1328     Co1365   2.121       .  S
C1329      C1367   1.475       .  S
C1329      N1354   1.356       .  A
C1329      H1374   1.081       .  S
H1330      C1371   1.081       .  S
C1331      C1335   1.460       .  S
C1331      N1355   1.332       .  A
C1331      H1360   1.080       .  S
Co1332     N1350   2.143       .  S
Co1332     N1340   2.078       .  S
Co1332     N1372   2.128       .  S
Co1332     N1348   2.087       .  S
Co1332    Cl1376   2.416       .  S
N1333      C1371   1.357       .  A
N1333      N1340   1.329       .  A
N1333     Co1334   2.135       .  S
Co1334     N1337   2.171       .  S
Co1334     N1354   2.120       .  S
Co1334     N1341   2.239       .  S
Co1334    Cl1376   2.527       .  S
C1335      N1373   1.370       .  A
N1336      N1343   1.319       .  A
N1336      N1366   1.329       .  A
N1336     Co1369   2.081       .  S
N1337      N1355   1.324       .  A
N1337      N1373   1.345       .  A
N1338      C1367   1.335       .  A
N1338      N1348   1.306       .  A
H1339      C1364   1.082       .  S
N1340      N1361   1.312       .  A
N1341      N1359   1.317       .  A
N1341      N1346   1.360       .  A
C1342      C1370   1.456       .  S
C1342      N1346   1.394       .  A
N1343      C1358   1.320       .  A
N1343     Co1365   2.024       .  S
C1344      C1347   1.483       .  S
C1344      N1372   1.359       .  A
C1344      H1378   1.081       .  S
C1347      C1559   1.506       .  S
C1347      N1368   1.348       .  A
N1348      N1354   1.332       .  A
N1349      C1375   1.330       .  A
N1349      N1351   1.322       .  A
N1349     Co1365   2.060       .  S
N1350      C1364   1.358       .  A
N1351      N1379   1.321       .  A
N1351     Co1369   2.046       .  S
H1352      C1375   1.078       .  S
H1353      C1370   1.082       .  S
N1355     Co1369   2.084       .  S
N1356      N1368   1.330       .  A
N1356      N1372   1.311       .  A
N1356     Co1365   2.069       .  S
C1357      C1371   1.477       .  S
C1357      C1420   1.472       .  S
C1357      N1361   1.339       .  A
C1358      C1377   1.431       .  S
C1358      H1362   1.082       .  S
N1359      C1370   1.348       .  A
N1359     Co1369   2.094       .  S
C1363      C1375   1.448       .  S
C1363      C2997   1.430       .  S
C1363      N1379   1.343       .  A
Co1365    Cl1376   2.465       .  S
N1366      C1377   1.350       .  A
Co1369    Cl1376   2.450       .  S
C1377      C3377   1.443       .  S
C1380      C1417   1.490       .  S
C1380      C1469   1.525       .  S
C1380      N1398   1.356       .  A
N1381      N1398   1.334       .  A
N1381      N1403   1.316       .  A
N1381     Co1418   2.099       .  S
C1382      C1420   1.471       .  S
C1382      N1407   1.357       .  A
C1382      H1427   1.081       .  S
H1383      C1424   1.081       .  S
C1384      C1388   1.478       .  S
C1384      N1408   1.345       .  A
C1384      H1413   1.081       .  S
Co1385     N1403   2.156       .  S
Co1385     N1393   2.058       .  S
Co1385     N1425   2.120       .  S
Co1385     N1401   2.102       .  S
Co1385    Cl1429   2.443       .  S
N1386      C1424   1.356       .  A
N1386      N1393   1.326       .  A
N1386     Co1387   2.122       .  S
Co1387     N1390   2.162       .  S
Co1387     N1407   2.122       .  S
Co1387     N1394   2.208       .  S
Co1387    Cl1429   2.511       .  S
C1388      C1607   1.530       .  S
C1388      N1426   1.366       .  A
N1389      N1396   1.321       .  A
N1389      N1419   1.333       .  A
N1389     Co1422   2.108       .  S
N1390      N1408   1.325       .  A
N1390      N1426   1.345       .  A
N1391      C1420   1.343       .  A
N1391      N1401   1.313       .  A
H1392      C1417   1.082       .  S
N1393      N1414   1.306       .  A
N1394      N1412   1.318       .  A
N1394      N1399   1.355       .  A
C1395      C1423   1.462       .  S
C1395      N1399   1.386       .  A
N1396      C1411   1.314       .  A
N1396     Co1418   2.017       .  S
C1397      C1400   1.480       .  S
C1397      N1425   1.359       .  A
C1397      H1431   1.081       .  S
C1400      C1506   1.518       .  S
C1400      N1421   1.355       .  A
N1401      N1407   1.332       .  A
N1402      C1428   1.323       .  A
N1402      N1404   1.322       .  A
N1402     Co1418   2.062       .  S
N1403      C1417   1.361       .  A
N1404      N1432   1.314       .  A
N1404     Co1422   2.026       .  S
H1405      C1428   1.081       .  S
H1406      C1423   1.082       .  S
N1408     Co1422   2.129       .  S
N1409      N1421   1.334       .  A
N1409      N1425   1.314       .  A
N1409     Co1418   2.100       .  S
C1410      C1424   1.475       .  S
C1410      N1414   1.337       .  A
C1411      C1430   1.430       .  S
C1411      H1415   1.081       .  S
N1412      C1423   1.349       .  A
N1412     Co1422   2.113       .  S
C1416      C1428   1.452       .  S
C1416      C3117   1.422       .  S
C1416      N1432   1.336       .  A
Co1418    Cl1429   2.433       .  S
N1419      C1430   1.361       .  A
Co1422    Cl1429   2.470       .  S
C1430      C3197   1.474       .  S
C1433      C1470   1.455       .  S
C1433      C3644   1.438       .  S
C1433      N1451   1.345       .  A
N1434      N1451   1.308       .  A
N1434      N1456   1.320       .  A
N1434     Co1471   2.063       .  S
C1435      C1473   1.504       .  S
C1435      N1460   1.374       .  A
C1435      H1480   1.081       .  S
H1436      C1477   1.081       .  S
C1437      C1441   1.447       .  S
C1437      N1461   1.320       .  A
C1437      H1466   1.082       .  S
Co1438     N1456   2.053       .  S
Co1438     N1446   2.078       .  S
Co1438     N1478   2.035       .  S
Co1438     N1454   2.113       .  S
Co1438    Cl1482   2.449       .  S
N1439      C1477   1.374       .  A
N1439      N1446   1.313       .  A
N1439     Co1440   2.163       .  S
Co1440     N1443   2.123       .  S
Co1440     N1460   2.208       .  S
Co1440     N1447   2.094       .  S
Co1440    Cl1482   2.513       .  S
C1441      C1569   1.466       .  S
C1441      N1479   1.359       .  A
N1442      N1449   1.312       .  A
N1442      N1472   1.343       .  A
N1442     Co1475   2.149       .  S
N1443      N1461   1.329       .  A
N1443      N1479   1.335       .  A
N1444      C1473   1.358       .  A
N1444      N1454   1.334       .  A
H1445      C1470   1.081       .  S
N1446      N1467   1.322       .  A
N1447      N1465   1.327       .  A
N1447      N1452   1.328       .  A
C1448      C1476   1.453       .  S
C1448      C1526   1.458       .  S
C1448      N1452   1.352       .  A
N1449      C1464   1.353       .  A
N1449     Co1471   2.101       .  S
C1450      C1453   1.441       .  S
C1450      N1478   1.334       .  A
C1450      H1484   1.081       .  S
C1453      C3207   1.459       .  S
C1453      N1474   1.345       .  A
N1454      N1460   1.323       .  A
N1455      C1481   1.358       .  A
N1455      N1457   1.321       .  A
N1455     Co1471   2.139       .  S
N1456      C1470   1.338       .  A
N1457      N1485   1.337       .  A
N1457     Co1475   2.122       .  S
H1458      C1481   1.081       .  S
H1459      C1476   1.082       .  S
N1461     Co1475   2.078       .  S
N1462      N1474   1.314       .  A
N1462      N1478   1.325       .  A
N1462     Co1471   2.076       .  S
C1463      C1477   1.501       .  S
C1463      N1467   1.348       .  A
C1464      C1483   1.469       .  S
C1464      H1468   1.082       .  S
N1465      C1476   1.324       .  A
N1465     Co1475   2.088       .  S
C1469      C1481   1.481       .  S
C1469      N1485   1.360       .  A
Co1471    Cl1482   2.447       .  S
N1472      C1483   1.372       .  A
Co1475    Cl1482   2.435       .  S
C1486      C1523   1.479       .  S
C1486      N1504   1.362       .  A
N1487      N1504   1.337       .  A
N1487      N1509   1.321       .  A
N1487     Co1524   2.136       .  S
C1488      C1526   1.466       .  S
C1488      N1513   1.352       .  A
C1488      H1533   1.081       .  S
H1489      C1530   1.081       .  S
C1490      C1494   1.463       .  S
C1490      N1514   1.339       .  A
C1490      H1519   1.081       .  S
Co1491     N1509   2.129       .  S
Co1491     N1499   2.090       .  S
Co1491     N1531   2.146       .  S
Co1491     N1507   2.086       .  S
Co1491    Cl1535   2.416       .  S
N1492      C1530   1.350       .  A
N1492      N1499   1.327       .  A
N1492     Co1493   2.099       .  S
Co1493     N1496   2.190       .  S
Co1493     N1513   2.107       .  S
Co1493     N1500   2.186       .  S
Co1493    Cl1535   2.525       .  S
C1494      C1766   1.532   1_556  S
C1494      N1532   1.377       .  A
N1495      N1502   1.322       .  A
N1495      N1525   1.319       .  A
N1495     Co1528   2.041       .  S
N1496      N1514   1.321       .  A
N1496      N1532   1.349       .  A
N1497      C1526   1.338       .  A
N1497      N1507   1.310       .  A
H1498      C1523   1.082       .  S
N1499      N1520   1.310       .  A
N1500      N1518   1.311       .  A
N1500      N1505   1.355       .  A
C1501      C1529   1.450       .  S
C1501      N1505   1.384       .  A
N1502      C1517   1.316       .  A
N1502     Co1524   2.018       .  S
C1503      C1506   1.486       .  S
C1503      N1531   1.362       .  A
C1503      H1537   1.081       .  S
C1506      N1527   1.351       .  A
N1507      N1513   1.332       .  A
N1508      C1534   1.330       .  A
N1508      N1510   1.321       .  A
N1508     Co1524   2.062       .  S
N1509      C1523   1.356       .  A
N1510      N1538   1.310       .  A
N1510     Co1528   2.027       .  S
H1511      C1534   1.082       .  S
H1512      C1529   1.082       .  S
N1514     Co1528   2.091       .  S
N1515      N1527   1.332       .  A
N1515      N1531   1.315       .  A
N1515     Co1524   2.077       .  S
C1516      C1530   1.466       .  S
C1516      C1579   1.460       .  S
C1516      N1520   1.344       .  A
C1517      C1536   1.432       .  S
C1517      H1521   1.082       .  S
N1518      C1529   1.334       .  A
N1518     Co1528   2.068       .  S
C1522      C1534   1.456       .  S
C1522      C3127   1.423       .  S
C1522      N1538   1.329       .  A
Co1524    Cl1535   2.471       .  S
N1525      C1536   1.340       .  A
Co1528    Cl1535   2.416       .  S
C1536      C3387   1.410       .  S
C1539      C1576   1.471       .  S
C1539      N1557   1.355       .  A
N1540      N1557   1.331       .  A
N1540      N1562   1.319       .  A
N1540     Co1577   2.110       .  S
C1541      C1579   1.474       .  S
C1541      N1566   1.355       .  A
C1541      H1586   1.081       .  S
H1542      C1583   1.081       .  S
C1543      C1547   1.464       .  S
C1543      N1567   1.341       .  A
C1543      H1572   1.081       .  S
Co1544     N1562   2.107       .  S
Co1544     N1552   2.077       .  S
Co1544     N1584   2.117       .  S
Co1544     N1560   2.063       .  S
Co1544    Cl1588   2.414       .  S
N1545      C1583   1.355       .  A
N1545      N1552   1.327       .  A
N1545     Co1546   2.109       .  S
Co1546     N1549   2.199       .  S
Co1546     N1566   2.116       .  S
Co1546     N1553   2.155       .  S
Co1546    Cl1588   2.523       .  S
C1547      N1585   1.377       .  A
N1548      N1555   1.323       .  A
N1548      N1578   1.330       .  A
N1548     Co1581   2.104       .  S
N1549      N1567   1.324       .  A
N1549      N1585   1.349       .  A
N1550      C1579   1.337       .  A
N1550      N1560   1.307       .  A
H1551      C1576   1.081       .  S
N1552      N1573   1.307       .  A
N1553      N1571   1.315       .  A
N1553      N1558   1.347       .  A
C1554      C1582   1.456       .  S
C1554      C1897   1.526   1_556  S
C1554      N1558   1.375       .  A
N1555      C1570   1.321       .  A
N1555     Co1577   2.035       .  S
C1556      C1559   1.475       .  S
C1556      N1584   1.356       .  A
C1556      H1590   1.081       .  S
C1559      N1580   1.352       .  A
N1560      N1566   1.326       .  A
N1561      C1587   1.335       .  A
N1561      N1563   1.317       .  A
N1561     Co1577   2.082       .  S
N1562      C1576   1.355       .  A
N1563      N1591   1.303       .  A
N1563     Co1581   1.995       .  S
H1564      C1587   1.082       .  S
H1565      C1582   1.081       .  S
N1567     Co1581   2.094       .  S
N1568      N1580   1.331       .  A
N1568      N1584   1.316       .  A
N1568     Co1577   2.087       .  S
C1569      C1583   1.471       .  S
C1569      N1573   1.339       .  A
C1570      C1589   1.440       .  S
C1570      H1574   1.081       .  S
N1571      C1582   1.344       .  A
N1571     Co1581   2.098       .  S
C1575      C1587   1.467       .  S
C1575      C3007   1.421       .  S
C1575      N1591   1.323       .  A
Co1577    Cl1588   2.453       .  S
N1578      C1589   1.355       .  A
Co1581    Cl1588   2.424       .  S
C1589      C3304   1.478       .  S
C1592      C1629   1.487       .  S
C1592      C1751   1.521       .  S
C1592      N1610   1.355       .  A
N1593      N1610   1.334       .  A
N1593      N1615   1.315       .  A
N1593     Co1630   2.112       .  S
C1594      C1632   1.477       .  S
C1594      N1619   1.358       .  A
C1594      H1639   1.081       .  S
H1595      C1636   1.081       .  S
C1596      C1600   1.454       .  S
C1596      N1620   1.336       .  A
C1596      H1625   1.082       .  S
Co1597     N1615   2.140       .  S
Co1597     N1605   2.077       .  S
Co1597     N1637   2.145       .  S
Co1597     N1613   2.070       .  S
Co1597    Cl1641   2.413       .  S
N1598      C1636   1.352       .  A
N1598      N1605   1.331       .  A
N1598     Co1599   2.110       .  S
Co1599     N1602   2.222       .  S
Co1599     N1619   2.128       .  S
Co1599     N1606   2.195       .  S
Co1599    Cl1641   2.519       .  S
C1600      C2258   1.541       .  S
C1600      N1638   1.386       .  A
N1601      N1608   1.311       .  A
N1601      N1631   1.316       .  A
N1601     Co1634   2.008       .  S
N1602      N1620   1.316       .  A
N1602      N1638   1.355       .  A
N1603      C1632   1.336       .  A
N1603      N1613   1.304       .  A
H1604      C1629   1.082       .  S
N1605      N1626   1.307       .  A
N1606      N1624   1.316       .  A
N1606      N1611   1.351       .  A
C1607      C1635   1.446       .  S
C1607      N1611   1.383       .  A
N1608      C1623   1.301       .  A
N1608     Co1630   2.013       .  S
C1609      C1612   1.483       .  S
C1609      N1637   1.361       .  A
C1609      H1643   1.082       .  S
C1612      C1824   1.531       .  S
C1612      N1633   1.360       .  A
N1613      N1619   1.329       .  A
N1614      C1640   1.337       .  A
N1614      N1616   1.322       .  A
N1614     Co1630   2.073       .  S
N1615      C1629   1.360       .  A
N1616      N1644   1.307       .  A
N1616     Co1634   2.013       .  S
H1617      C1640   1.082       .  S
H1618      C1635   1.081       .  S
N1620     Co1634   2.055       .  S
N1621      N1633   1.337       .  A
N1621      N1637   1.317       .  A
N1621     Co1630   2.101       .  S
C1622      C1636   1.468       .  S
C1622      C1653   1.455       .  S
C1622      N1626   1.336       .  A
C1623      C1642   1.444       .  S
C1623      H1627   1.076       .  S
N1624      C1635   1.337       .  A
N1624     Co1634   2.078       .  S
C1628      C1640   1.461       .  S
C1628      C3174   1.412       .  S
C1628      N1644   1.320       .  A
Co1630    Cl1641   2.460       .  S
N1631      C1642   1.348       .  A
C1632      C1713   1.469       .  S
Co1634    Cl1641   2.439       .  S
C1642      C3814   1.432       .  S
C1645      C1682   1.428       .  S
C1645      C3434   1.413       .  S
C1645      N1663   1.341       .  A
N1646      N1663   1.313       .  A
N1646      N1668   1.326       .  A
N1646     Co1683   2.072       .  S
C1647      C1685   1.488       .  S
C1647      N1672   1.363       .  A
C1647      H1692   1.081       .  S
H1648      C1689   1.081       .  S
C1649      C1653   1.451       .  S
C1649      N1673   1.322       .  A
C1649      H1678   1.082       .  S
Co1650     N1668   2.035       .  S
Co1650     N1658   2.104       .  S
Co1650     N1690   2.047       .  S
Co1650     N1666   2.095       .  S
Co1650    Cl1694   2.455       .  S
N1651      C1689   1.380       .  A
N1651      N1658   1.316       .  A
N1651     Co1652   2.209       .  S
Co1652     N1655   2.092       .  S
Co1652     N1672   2.165       .  S
Co1652     N1659   2.138       .  S
Co1652    Cl1694   2.519       .  S
C1653      N1691   1.352       .  A
N1654      N1661   1.312       .  A
N1654      N1684   1.339       .  A
N1654     Co1687   2.126       .  S
N1655      N1673   1.330       .  A
N1655      N1691   1.329       .  A
N1656      C1685   1.351       .  A
N1656      N1666   1.325       .  A
H1657      C1682   1.077       .  S
N1658      N1679   1.334       .  A
N1659      N1677   1.324       .  A
N1659      N1664   1.337       .  A
C1660      C1688   1.448       .  S
C1660      C1706   1.484       .  S
C1660      N1664   1.365       .  A
N1661      C1676   1.349       .  A
N1661     Co1683   2.090       .  S
C1662      C1665   1.445       .  S
C1662      N1690   1.336       .  A
C1662      H1696   1.082       .  S
C1665      C3017   1.431       .  S
C1665      N1686   1.336       .  A
N1666      N1672   1.324       .  A
N1667      C1693   1.361       .  A
N1667      N1669   1.321       .  A
N1667     Co1683   2.153       .  S
N1668      C1682   1.330       .  A
N1669      N1697   1.340       .  A
N1669     Co1687   2.138       .  S
H1670      C1693   1.081       .  S
H1671      C1688   1.080       .  S
N1673     Co1687   2.096       .  S
N1674      N1686   1.311       .  A
N1674      N1690   1.324       .  A
N1674     Co1683   2.044       .  S
C1675      C1689   1.513       .  S
C1675      C2321   1.559       .  S
C1675      N1679   1.352       .  A
C1676      C1695   1.465       .  S
C1676      H1680   1.081       .  S
N1677      C1688   1.320       .  A
N1677     Co1687   2.069       .  S
C1681      C1693   1.487       .  S
C1681      C1893   1.539       .  S
C1681      N1697   1.365       .  A
Co1683    Cl1694   2.459       .  S
N1684      C1695   1.365       .  A
C1685      C2031   1.511       .  S
Co1687    Cl1694   2.430       .  S
C1695      C1771   1.515       .  S
C1698      C1735   1.466       .  S
C1698      C3717   1.451       .  S
C1698      N1716   1.333       .  A
N1699      N1716   1.303       .  A
N1699      N1721   1.322       .  A
N1699     Co1736   2.044       .  S
C1700      C1738   1.483       .  S
C1700      N1725   1.361       .  A
C1700      H1745   1.082       .  S
H1701      C1742   1.081       .  S
C1702      C1706   1.453       .  S
C1702      N1726   1.321       .  A
C1702      H1731   1.080       .  S
Co1703     N1721   2.079       .  S
Co1703     N1711   2.083       .  S
Co1703     N1743   2.039       .  S
Co1703     N1719   2.129       .  S
Co1703    Cl1747   2.468       .  S
N1704      C1742   1.371       .  A
N1704      N1711   1.319       .  A
N1704     Co1705   2.177       .  S
Co1705     N1708   2.118       .  S
Co1705     N1725   2.154       .  S
Co1705     N1712   2.110       .  S
Co1705    Cl1747   2.508       .  S
C1706      N1744   1.359       .  A
N1707      N1714   1.317       .  A
N1707      N1737   1.342       .  A
N1707     Co1740   2.127       .  S
N1708      N1726   1.330       .  A
N1708      N1744   1.338       .  A
N1709      C1738   1.360       .  A
N1709      N1719   1.334       .  A
H1710      C1735   1.082       .  S
N1711      N1732   1.327       .  A
N1712      N1730   1.324       .  A
N1712      N1717   1.333       .  A
C1713      C1741   1.456       .  S
C1713      N1717   1.358       .  A
N1714      C1729   1.351       .  A
N1714     Co1736   2.121       .  S
C1715      C1718   1.445       .  S
C1715      N1743   1.340       .  A
C1715      H1749   1.081       .  S
C1718      C3614   1.468       .  S
C1718      N1739   1.345       .  A
N1719      N1725   1.323       .  A
N1720      C1746   1.352       .  A
N1720      N1722   1.318       .  A
N1720     Co1736   2.099       .  S
N1721      C1735   1.348       .  A
N1722      N1750   1.339       .  A
N1722     Co1740   2.132       .  S
H1723      C1746   1.082       .  S
H1724      C1741   1.083       .  S
N1726     Co1740   2.096       .  S
N1727      N1739   1.308       .  A
N1727      N1743   1.323       .  A
N1727     Co1736   2.071       .  S
C1728      C1742   1.499       .  S
C1728      C1971   1.527       .  S
C1728      N1732   1.349       .  A
C1729      C1748   1.470       .  S
C1729      H1733   1.081       .  S
N1730      C1741   1.320       .  A
N1730     Co1740   2.075       .  S
C1734      C1746   1.469       .  S
C1734      C1804   1.519       .  S
C1734      N1750   1.364       .  A
Co1736    Cl1747   2.426       .  S
N1737      C1748   1.366       .  A
Co1740    Cl1747   2.446       .  S
C1748      C1907   1.526       .  S
C1751      C1788   1.477       .  S
C1751      N1769   1.361       .  A
N1752      N1769   1.337       .  A
N1752      N1774   1.315       .  A
N1752     Co1789   2.127       .  S
C1753      C1791   1.481       .  S
C1753      N1778   1.360       .  A
C1753      H1798   1.081       .  S
H1754      C1795   1.081       .  S
C1755      C1759   1.465       .  S
C1755      N1779   1.348       .  A
C1755      H1784   1.082       .  S
Co1756     N1774   2.111       .  S
Co1756     N1764   2.073       .  S
Co1756     N1796   2.136       .  S
Co1756     N1772   2.048       .  S
Co1756    Cl1800   2.423       .  S
N1757      C1795   1.351       .  A
N1757      N1764   1.329       .  A
N1757     Co1758   2.110       .  S
Co1758     N1761   2.216       .  S
Co1758     N1778   2.139       .  S
Co1758     N1765   2.167       .  S
Co1758    Cl1800   2.520       .  S
C1759      C2152   1.553   1_455  S
C1759      N1797   1.384       .  A
N1760      N1767   1.322       .  A
N1760      N1790   1.329       .  A
N1760     Co1793   2.090       .  S
N1761      N1779   1.321       .  A
N1761      N1797   1.353       .  A
N1762      C1791   1.331       .  A
N1762      N1772   1.305       .  A
H1763      C1788   1.082       .  S
N1764      N1785   1.308       .  A
N1765      N1783   1.319       .  A
N1765      N1770   1.349       .  A
C1766      C1794   1.464       .  S
C1766      N1770   1.375       .  A
N1767      C1782   1.311       .  A
N1767     Co1789   2.025       .  S
C1768      C1771   1.481       .  S
C1768      N1796   1.359       .  A
C1768      H1802   1.081       .  S
C1771      N1792   1.354       .  A
N1772      N1778   1.327       .  A
N1773      C1799   1.325       .  A
N1773      N1775   1.319       .  A
N1773     Co1789   2.064       .  S
N1774      C1788   1.356       .  A
N1775      N1803   1.312       .  A
N1775     Co1793   2.025       .  S
H1776      C1799   1.083       .  S
H1777      C1794   1.081       .  S
N1779     Co1793   2.101       .  S
N1780      N1792   1.332       .  A
N1780      N1796   1.316       .  A
N1780     Co1789   2.085       .  S
C1781      C1795   1.469       .  S
C1781      C1844   1.452       .  S
C1781      N1785   1.337       .  A
C1782      C1801   1.427       .  S
C1782      H1786   1.082       .  S
N1783      C1794   1.341       .  A
N1783     Co1793   2.107       .  S
C1787      C1799   1.462       .  S
C1787      C3447   1.450       .  S
C1787      N1803   1.335       .  A
Co1789    Cl1800   2.448       .  S
N1790      C1801   1.354       .  A
C1791      C1872   1.468       .  S
Co1793    Cl1800   2.444       .  S
C1801      C3827   1.438       .  S
C1804      C1841   1.482       .  S
C1804      N1822   1.356       .  A
N1805      N1822   1.334       .  A
N1805      N1827   1.320       .  A
N1805     Co1842   2.102       .  S
C1806      C1844   1.462       .  S
C1806      N1831   1.348       .  A
C1806      H1851   1.081       .  S
H1807      C1848   1.081       .  S
C1808      C1812   1.468       .  S
C1808      N1832   1.340       .  A
C1808      H1837   1.082       .  S
Co1809     N1827   2.143       .  S
Co1809     N1817   2.078       .  S
Co1809     N1849   2.130       .  S
Co1809     N1825   2.100       .  S
Co1809    Cl1853   2.419       .  S
N1810      C1848   1.350       .  A
N1810      N1817   1.326       .  A
N1810     Co1811   2.091       .  S
Co1811     N1814   2.165       .  S
Co1811     N1831   2.090       .  S
Co1811     N1818   2.171       .  S
Co1811    Cl1853   2.525       .  S
C1812      C2417   1.522   1_565  S
C1812      N1850   1.369       .  A
N1813      N1820   1.323       .  A
N1813      N1843   1.323       .  A
N1813     Co1846   2.053       .  S
N1814      N1832   1.324       .  A
N1814      N1850   1.346       .  A
N1815      C1844   1.344       .  A
N1815      N1825   1.310       .  A
H1816      C1841   1.082       .  S
N1817      N1838   1.306       .  A
N1818      N1836   1.312       .  A
N1818      N1823   1.354       .  A
C1819      C1847   1.454       .  S
C1819      C2183   1.535   1_455  S
C1819      N1823   1.381       .  A
N1820      C1835   1.323       .  A
N1820     Co1842   2.059       .  S
C1821      C1824   1.485       .  S
C1821      N1849   1.361       .  A
C1821      H1855   1.082       .  S
C1824      N1845   1.359       .  A
N1825      N1831   1.330       .  A
N1826      C1852   1.321       .  A
N1826      N1828   1.320       .  A
N1826     Co1842   2.066       .  S
N1827      C1841   1.358       .  A
N1828      N1856   1.319       .  A
N1828     Co1846   2.032       .  S
H1829      C1852   1.081       .  S
H1830      C1847   1.080       .  S
N1832     Co1846   2.112       .  S
N1833      N1845   1.337       .  A
N1833      N1849   1.313       .  A
N1833     Co1842   2.112       .  S
C1834      C1848   1.465       .  S
C1834      C1865   1.454       .  S
C1834      N1838   1.339       .  A
C1835      C1854   1.449       .  S
C1835      H1839   1.081       .  S
N1836      C1847   1.331       .  A
N1836     Co1846   2.071       .  S
C1840      C1852   1.453       .  S
C1840      C3187   1.433       .  S
C1840      N1856   1.340       .  A
Co1842    Cl1853   2.438       .  S
N1843      C1854   1.343       .  A
Co1846    Cl1853   2.439       .  S
C1854      C3624   1.476       .  S
C1857      C1894   1.425       .  S
C1857      C3724   1.429       .  S
C1857      N1875   1.355       .  A
N1858      N1875   1.317       .  A
N1858      N1880   1.322       .  A
N1858     Co1895   2.081       .  S
C1859      C1897   1.489       .  S
C1859      N1884   1.365       .  A
C1859      H1904   1.081       .  S
H1860      C1901   1.081       .  S
C1861      C1865   1.441       .  S
C1861      N1885   1.316       .  A
C1861      H1890   1.082       .  S
Co1862     N1880   2.050       .  S
Co1862     N1870   2.048       .  S
Co1862     N1902   2.051       .  S
Co1862     N1878   2.106       .  S
Co1862    Cl1906   2.433       .  S
N1863      C1901   1.378       .  A
N1863      N1870   1.309       .  A
N1863     Co1864   2.170       .  S
Co1864     N1867   2.107       .  S
Co1864     N1884   2.180       .  S
Co1864     N1871   2.086       .  S
Co1864    Cl1906   2.503       .  S
C1865      N1903   1.355       .  A
N1866      N1873   1.311       .  A
N1866      N1896   1.344       .  A
N1866     Co1899   2.156       .  S
N1867      N1885   1.331       .  A
N1867      N1903   1.333       .  A
N1868      C1897   1.359       .  A
N1868      N1878   1.330       .  A
H1869      C1894   1.075       .  S
N1870      N1891   1.316       .  A
N1871      N1889   1.326       .  A
N1871      N1876   1.329       .  A
C1872      C1900   1.465       .  S
C1872      N1876   1.350       .  A
N1873      C1888   1.348       .  A
N1873     Co1895   2.069       .  S
C1874      C1877   1.464       .  S
C1874      N1902   1.337       .  A
C1874      H1908   1.081       .  S
C1877      C3024   1.414       .  S
C1877      N1898   1.331       .  A
N1878      N1884   1.324       .  A
N1879      C1905   1.362       .  A
N1879      N1881   1.325       .  A
N1879     Co1895   2.180       .  S
N1880      C1894   1.326       .  A
N1881      N1909   1.339       .  A
N1881     Co1899   2.127       .  S
H1882      C1905   1.081       .  S
H1883      C1900   1.083       .  S
N1885     Co1899   2.075       .  S
N1886      N1898   1.303       .  A
N1886      N1902   1.317       .  A
N1886     Co1895   2.002       .  S
C1887      C1901   1.509       .  S
C1887      C2448   1.521   1_565  S
C1887      N1891   1.335       .  A
C1888      C1907   1.462       .  S
C1888      H1892   1.082       .  S
N1889      C1900   1.327       .  A
N1889     Co1899   2.103       .  S
C1893      C1905   1.489       .  S
C1893      N1909   1.363       .  A
Co1895    Cl1906   2.456       .  S
N1896      C1907   1.371       .  A
Co1899    Cl1906   2.435       .  S
C1910      C1947   1.467       .  S
C1910      C3797   1.455       .  S
C1910      N1928   1.325       .  A
N1911      N1928   1.302       .  A
N1911      N1933   1.318       .  A
N1911     Co1948   2.049       .  S
C1912      C1950   1.488       .  S
C1912      N1937   1.366       .  A
C1912      H1957   1.081       .  S
H1913      C1954   1.081       .  S
C1914      C1918   1.453       .  S
C1914      N1938   1.321       .  A
C1914      H1943   1.082       .  S
Co1915     N1933   2.072       .  S
Co1915     N1923   2.112       .  S
Co1915     N1955   2.044       .  S
Co1915     N1931   2.122       .  S
Co1915    Cl1959   2.461       .  S
N1916      C1954   1.372       .  A
N1916      N1923   1.318       .  A
N1916     Co1917   2.152       .  S
Co1917     N1920   2.093       .  S
Co1917     N1937   2.154       .  S
Co1917     N1924   2.086       .  S
Co1917    Cl1959   2.505       .  S
C1918      C2046   1.456       .  S
C1918      N1956   1.353       .  A
N1919      N1926   1.311       .  A
N1919      N1949   1.341       .  A
N1919     Co1952   2.132       .  S
N1920      N1938   1.327       .  A
N1920      N1956   1.330       .  A
N1921      C1950   1.358       .  A
N1921      N1931   1.330       .  A
H1922      C1947   1.082       .  S
N1923      N1944   1.324       .  A
N1924      N1942   1.325       .  A
N1924      N1929   1.327       .  A
C1925      C1953   1.453       .  S
C1925      C2003   1.453       .  S
C1925      N1929   1.352       .  A
N1926      C1941   1.348       .  A
N1926     Co1948   2.086       .  S
C1927      C1930   1.453       .  S
C1927      N1955   1.336       .  A
C1927      H1961   1.080       .  S
C1930      C3134   1.468       .  S
C1930      N1951   1.347       .  A
N1931      N1937   1.321       .  A
N1932      C1958   1.356       .  A
N1932      N1934   1.319       .  A
N1932     Co1948   2.125       .  S
N1933      C1947   1.343       .  A
N1934      N1962   1.338       .  A
N1934     Co1952   2.128       .  S
H1935      C1958   1.082       .  S
H1936      C1953   1.083       .  S
N1938     Co1952   2.085       .  S
N1939      N1951   1.318       .  A
N1939      N1955   1.323       .  A
N1939     Co1948   2.093       .  S
C1940      C1954   1.492       .  S
C1940      C2660   1.527       .  S
C1940      N1944   1.357       .  A
C1941      C1960   1.458       .  S
C1941      H1945   1.080       .  S
N1942      C1953   1.321       .  A
N1942     Co1952   2.080       .  S
C1946      C1958   1.477       .  S
C1946      C2175   1.525       .  S
C1946      N1962   1.362       .  A
Co1948    Cl1959   2.410       .  S
N1949      C1960   1.369       .  A
Co1952    Cl1959   2.441       .  S
C1960      C2172   1.516       .  S
C1963      C2000   1.476       .  S
C1963      C2069   1.523       .  S
C1963      N1981   1.363       .  A
N1964      N1981   1.337       .  A
N1964      N1986   1.322       .  A
N1964     Co2001   2.130       .  S
C1965      C2003   1.466       .  S
C1965      N1990   1.351       .  A
C1965      H2010   1.081       .  S
H1966      C2007   1.081       .  S
C1967      C1971   1.469       .  S
C1967      N1991   1.345       .  A
C1967      H1996   1.082       .  S
Co1968     N1986   2.132       .  S
Co1968     N1976   2.086       .  S
Co1968     N2008   2.151       .  S
Co1968     N1984   2.080       .  S
Co1968    Cl2012   2.433       .  S
N1969      C2007   1.354       .  A
N1969      N1976   1.328       .  A
N1969     Co1970   2.117       .  S
Co1970     N1973   2.165       .  S
Co1970     N1990   2.102       .  S
Co1970     N1977   2.205       .  S
Co1970    Cl2012   2.514       .  S
C1971      N2009   1.370       .  A
N1972      N1979   1.320       .  A
N1972      N2002   1.321       .  A
N1972     Co2005   2.031       .  S
N1973      N1991   1.324       .  A
N1973      N2009   1.345       .  A
N1974      C2003   1.337       .  A
N1974      N1984   1.307       .  A
H1975      C2000   1.082       .  S
N1976      N1997   1.312       .  A
N1977      N1995   1.314       .  A
N1977      N1982   1.355       .  A
C1978      C2006   1.455       .  S
C1978      N1982   1.385       .  A
N1979      C1994   1.322       .  A
N1979     Co2001   2.060       .  S
C1980      C1983   1.493       .  S
C1980      N2008   1.365       .  A
C1980      H2014   1.081       .  S
C1983      C2195   1.530       .  S
C1983      N2004   1.353       .  A
N1984      N1990   1.331       .  A
N1985      C2011   1.315       .  A
N1985      N1987   1.315       .  A
N1985     Co2001   2.044       .  S
N1986      C2000   1.355       .  A
N1987      N2015   1.325       .  A
N1987     Co2005   2.072       .  S
H1988      C2011   1.079       .  S
H1989      C2006   1.082       .  S
N1991     Co2005   2.123       .  S
N1992      N2004   1.335       .  A
N1992      N2008   1.311       .  A
N1992     Co2001   2.088       .  S
C1993      C2007   1.471       .  S
C1993      C2056   1.468       .  S
C1993      N1997   1.342       .  A
C1994      C2013   1.451       .  S
C1994      H1998   1.082       .  S
N1995      C2006   1.339       .  A
N1995     Co2005   2.070       .  S
C1999      C2011   1.454       .  S
C1999      C2924   1.470       .  S
C1999      N2015   1.358       .  A
Co2001    Cl2012   2.444       .  S
N2002      C2013   1.339       .  A
Co2005    Cl2012   2.460       .  S
C2013      C3694   1.435       .  S
C2016      C2053   1.481       .  S
C2016      C2158   1.498       .  S
C2016      N2034   1.345       .  A
N2017      N2034   1.327       .  A
N2017      N2039   1.313       .  A
N2017     Co2054   2.063       .  S
C2018      C2056   1.474       .  S
C2018      N2043   1.356       .  A
C2018      H2063   1.081       .  S
H2019      C2060   1.081       .  S
C2020      C2024   1.451       .  S
C2020      N2044   1.333       .  A
C2020      H2049   1.080       .  S
Co2021     N2039   2.126       .  S
Co2021     N2029   2.072       .  S
Co2021     N2061   2.120       .  S
Co2021     N2037   2.073       .  S
Co2021    Cl2065   2.415       .  S
N2022      C2060   1.354       .  A
N2022      N2029   1.329       .  A
N2022     Co2023   2.105       .  S
Co2023     N2026   2.205       .  S
Co2023     N2043   2.124       .  S
Co2023     N2030   2.159       .  S
Co2023    Cl2065   2.524       .  S
C2024      C2561   1.544       .  S
C2024      N2062   1.387       .  A
N2025      N2032   1.321       .  A
N2025      N2055   1.323       .  A
N2025     Co2058   2.060       .  S
N2026      N2044   1.314       .  A
N2026      N2062   1.357       .  A
N2027      C2056   1.340       .  A
N2027      N2037   1.311       .  A
H2028      C2053   1.081       .  S
N2029      N2050   1.305       .  A
N2030      N2048   1.323       .  A
N2030      N2035   1.342       .  A
C2031      C2059   1.462       .  S
C2031      N2035   1.368       .  A
N2032      C2047   1.326       .  A
N2032     Co2054   2.064       .  S
C2033      C2036   1.474       .  S
C2033      N2061   1.354       .  A
C2033      H2067   1.082       .  S
C2036      C2089   1.523       .  S
C2036      N2057   1.364       .  A
N2037      N2043   1.326       .  A
N2038      C2064   1.317       .  A
N2038      N2040   1.320       .  A
N2038     Co2054   2.024       .  S
N2039      C2053   1.358       .  A
N2040      N2068   1.322       .  A
N2040     Co2058   2.049       .  S
H2041      C2064   1.082       .  S
H2042      C2059   1.082       .  S
N2044     Co2058   2.066       .  S
N2045      N2057   1.338       .  A
N2045      N2061   1.321       .  A
N2045     Co2054   2.140       .  S
C2046      C2060   1.470       .  S
C2046      N2050   1.335       .  A
C2047      C2066   1.458       .  S
C2047      H2051   1.078       .  S
N2048      C2059   1.341       .  A
N2048     Co2058   2.101       .  S
C2052      C2064   1.435       .  S
C2052      C3037   1.422       .  S
C2052      N2068   1.341       .  A
Co2054    Cl2065   2.462       .  S
N2055      C2066   1.345       .  A
Co2058    Cl2065   2.436       .  S
C2066      C3277   1.462       .  S
C2069      C2106   1.484       .  S
C2069      N2087   1.358       .  A
N2070      N2087   1.335       .  A
N2070      N2092   1.317       .  A
N2070     Co2107   2.099       .  S
C2071      C2109   1.467       .  S
C2071      N2096   1.353       .  A
C2071      H2116   1.081       .  S
H2072      C2113   1.081       .  S
C2073      C2077   1.473       .  S
C2073      N2097   1.341       .  A
C2073      H2102   1.081       .  S
Co2074     N2092   2.148       .  S
Co2074     N2082   2.070       .  S
Co2074     N2114   2.127       .  S
Co2074     N2090   2.089       .  S
Co2074    Cl2118   2.425       .  S
N2075      C2113   1.350       .  A
N2075      N2082   1.327       .  A
N2075     Co2076   2.104       .  S
Co2076     N2079   2.156       .  S
Co2076     N2096   2.099       .  S
Co2076     N2083   2.179       .  S
Co2076    Cl2118   2.519       .  S
C2077      C2735   1.521   1_565  S
C2077      N2115   1.366       .  A
N2078      N2085   1.324       .  A
N2078      N2108   1.329       .  A
N2078     Co2111   2.092       .  S
N2079      N2097   1.325       .  A
N2079      N2115   1.344       .  A
N2080      C2109   1.341       .  A
N2080      N2090   1.309       .  A
H2081      C2106   1.082       .  S
N2082      N2103   1.308       .  A
N2083      N2101   1.317       .  A
N2083      N2088   1.353       .  A
C2084      C2112   1.461       .  S
C2084      N2088   1.380       .  A
N2085      C2100   1.326       .  A
N2085     Co2107   2.068       .  S
C2086      C2089   1.485       .  S
C2086      N2114   1.359       .  A
C2086      H2120   1.082       .  S
C2089      N2110   1.358       .  A
N2090      N2096   1.328       .  A
N2091      C2117   1.320       .  A
N2091      N2093   1.321       .  A
N2091     Co2107   2.057       .  S
N2092      C2106   1.358       .  A
N2093      N2121   1.316       .  A
N2093     Co2111   2.019       .  S
H2094      C2117   1.080       .  S
H2095      C2112   1.082       .  S
N2097     Co2111   2.121       .  S
N2098      N2110   1.336       .  A
N2098      N2114   1.313       .  A
N2098     Co2107   2.116       .  S
C2099      C2113   1.468       .  S
C2099      C2215   1.452       .  S
C2099      N2103   1.339       .  A
C2100      C2119   1.446       .  S
C2100      H2104   1.081       .  S
N2101      C2112   1.343       .  A
N2101     Co2111   2.107       .  S
C2105      C2117   1.439       .  S
C2105      C3047   1.410       .  S
C2105      N2121   1.338       .  A
Co2107    Cl2118   2.442       .  S
N2108      C2119   1.352       .  A
C2109      C2137   1.462       .  S
Co2111    Cl2118   2.455       .  S
C2119      C3707   1.483       .  S
C2122      C2159   1.417       .  S
C2122      C3804   1.408       .  S
C2122      N2140   1.347       .  A
N2123      N2140   1.317       .  A
N2123      N2145   1.322       .  A
N2123     Co2160   2.087       .  S
C2124      C2162   1.495       .  S
C2124      N2149   1.369       .  A
C2124      H2169   1.081       .  S
H2125      C2166   1.081       .  S
C2126      C2130   1.446       .  S
C2126      N2150   1.318       .  A
C2126      H2155   1.082       .  S
Co2127     N2145   1.988       .  S
Co2127     N2135   2.160       .  S
Co2127     N2167   2.128       .  S
Co2127     N2143   2.100       .  S
Co2127    Cl2171   2.471       .  S
N2128      C2166   1.372       .  A
N2128      N2135   1.321       .  A
N2128     Co2129   2.168       .  S
Co2129     N2132   2.125       .  S
Co2129     N2149   2.187       .  S
Co2129     N2136   2.111       .  S
Co2129    Cl2171   2.508       .  S
C2130      C2205   1.469       .  S
C2130      N2168   1.363       .  A
N2131      N2138   1.317       .  A
N2131      N2161   1.338       .  A
N2131     Co2164   2.115       .  S
N2132      N2150   1.323       .  A
N2132      N2168   1.335       .  A
N2133      C2162   1.355       .  A
N2133      N2143   1.330       .  A
H2134      C2159   1.081       .  S
N2135      N2156   1.337       .  A
N2136      N2154   1.327       .  A
N2136      N2141   1.334       .  A
C2137      C2165   1.444       .  S
C2137      N2141   1.358       .  A
N2138      C2153   1.352       .  A
N2138     Co2160   2.104       .  S
C2139      C2142   1.485       .  S
C2139      N2167   1.358       .  A
C2139      H2173   1.081       .  S
C2142      C3287   1.481       .  S
C2142      N2163   1.321       .  A
N2143      N2149   1.323       .  A
N2144      C2170   1.345       .  A
N2144      N2146   1.315       .  A
N2144     Co2160   2.095       .  S
N2145      C2159   1.319       .  A
N2146      N2174   1.336       .  A
N2146     Co2164   2.102       .  S
H2147      C2170   1.078       .  S
H2148      C2165   1.082       .  S
N2150     Co2164   2.059       .  S
N2151      N2163   1.305       .  A
N2151      N2167   1.323       .  A
N2151     Co2160   2.034       .  S
C2152      C2166   1.496       .  S
C2152      N2156   1.364       .  A
C2153      C2172   1.470       .  S
C2153      H2157   1.081       .  S
N2154      C2165   1.319       .  A
N2154     Co2164   2.074       .  S
C2158      C2170   1.459       .  S
C2158      N2174   1.359       .  A
Co2160    Cl2171   2.421       .  S
N2161      C2172   1.360       .  A
Co2164    Cl2171   2.436       .  S
C2175      C2212   1.485       .  S
C2175      N2193   1.357       .  A
N2176      N2193   1.335       .  A
N2176      N2198   1.317       .  A
N2176     Co2213   2.115       .  S
C2177      C2215   1.463       .  S
C2177      N2202   1.349       .  A
C2177      H2222   1.081       .  S
H2178      C2219   1.081       .  S
C2179      C2183   1.457       .  S
C2179      N2203   1.331       .  A
C2179      H2208   1.080       .  S
Co2180     N2198   2.135       .  S
Co2180     N2188   2.094       .  S
Co2180     N2220   2.133       .  S
Co2180     N2196   2.084       .  S
Co2180    Cl2224   2.414       .  S
N2181      C2219   1.354       .  A
N2181      N2188   1.328       .  A
N2181     Co2182   2.101       .  S
Co2182     N2185   2.174       .  S
Co2182     N2202   2.093       .  S
Co2182     N2189   2.178       .  S
Co2182    Cl2224   2.537       .  S
C2183      N2221   1.380       .  A
N2184      N2191   1.323       .  A
N2184      N2214   1.319       .  A
N2184     Co2217   2.034       .  S
N2185      N2203   1.314       .  A
N2185      N2221   1.353       .  A
N2186      C2215   1.341       .  A
N2186      N2196   1.309       .  A
H2187      C2212   1.082       .  S
N2188      N2209   1.309       .  A
N2189      N2207   1.318       .  A
N2189      N2194   1.348       .  A
C2190      C2218   1.456       .  S
C2190      C2798   1.522   1_565  S
C2190      N2194   1.376       .  A
N2191      C2206   1.318       .  A
N2191     Co2213   2.046       .  S
C2192      C2195   1.475       .  S
C2192      N2220   1.358       .  A
C2192      H2226   1.082       .  S
C2195      N2216   1.365       .  A
N2196      N2202   1.328       .  A
N2197      C2223   1.332       .  A
N2197      N2199   1.327       .  A
N2197     Co2213   2.085       .  S
N2198      C2212   1.360       .  A
N2199      N2227   1.317       .  A
N2199     Co2217   2.030       .  S
H2200      C2223   1.082       .  S
H2201      C2218   1.082       .  S
N2203     Co2217   2.078       .  S
N2204      N2216   1.340       .  A
N2204      N2220   1.322       .  A
N2204     Co2213   2.135       .  S
C2205      C2219   1.467       .  S
C2205      N2209   1.344       .  A
C2206      C2225   1.442       .  S
C2206      H2210   1.082       .  S
N2207      C2218   1.338       .  A
N2207     Co2217   2.076       .  S
C2211      C2223   1.464       .  S
C2211      C2917   1.462       .  S
C2211      N2227   1.330       .  A
Co2213    Cl2224   2.477       .  S
N2214      C2225   1.333       .  A
Co2217    Cl2224   2.417       .  S
C2225      C3147   1.416       .  S
C2228      C2265   1.460       .  S
C2228      C3837   1.471       .  S
C2228      N2246   1.343       .  A
N2229      N2246   1.311       .  A
N2229      N2251   1.323       .  A
N2229     Co2266   2.070       .  S
C2230      C2268   1.487       .  S
C2230      N2255   1.366       .  A
C2230      H2275   1.081       .  S
H2231      C2272   1.081       .  S
C2232      C2236   1.454       .  S
C2232      N2256   1.318       .  A
C2232      H2261   1.079       .  S
Co2233     N2251   2.060       .  S
Co2233     N2241   2.100       .  S
Co2233     N2273   2.040       .  S
Co2233     N2249   2.132       .  S
Co2233    Cl2277   2.447       .  S
N2234      C2272   1.376       .  A
N2234      N2241   1.317       .  A
N2234     Co2235   2.181       .  S
Co2235     N2238   2.094       .  S
Co2235     N2255   2.152       .  S
Co2235     N2242   2.097       .  S
Co2235    Cl2277   2.511       .  S
C2236      C2296   1.471       .  S
C2236      N2274   1.353       .  A
N2237      N2244   1.315       .  A
N2237      N2267   1.342       .  A
N2237     Co2270   2.144       .  S
N2238      N2256   1.330       .  A
N2238      N2274   1.333       .  A
N2239      C2268   1.363       .  A
N2239      N2249   1.333       .  A
H2240      C2265   1.077       .  S
N2241      N2262   1.327       .  A
N2242      N2260   1.325       .  A
N2242      N2247   1.331       .  A
C2243      C2271   1.457       .  S
C2243      C2374   1.462       .  S
C2243      N2247   1.354       .  A
N2244      C2259   1.352       .  A
N2244     Co2266   2.107       .  S
C2245      C2248   1.449       .  S
C2245      N2273   1.337       .  A
C2245      H2279   1.081       .  S
C2248      C3577   1.444       .  S
C2248      N2269   1.335       .  A
N2249      N2255   1.319       .  A
N2250      C2276   1.355       .  A
N2250      N2252   1.316       .  A
N2250     Co2266   2.120       .  S
N2251      C2265   1.332       .  A
N2252      N2280   1.341       .  A
N2252     Co2270   2.143       .  S
H2253      C2276   1.082       .  S
H2254      C2271   1.082       .  S
N2256     Co2270   2.092       .  S
N2257      N2269   1.309       .  A
N2257      N2273   1.324       .  A
N2257     Co2266   2.057       .  S
C2258      C2272   1.504       .  S
C2258      N2262   1.354       .  A
C2259      C2278   1.470       .  S
C2259      H2263   1.082       .  S
N2260      C2271   1.321       .  A
N2260     Co2270   2.080       .  S
C2264      C2276   1.474       .  S
C2264      C2423   1.530       .  S
C2264      N2280   1.369       .  A
Co2266    Cl2277   2.432       .  S
N2267      C2278   1.369       .  A
Co2270    Cl2277   2.442       .  S
C2278      C2543   1.528       .  S
C2281      C2318   1.483       .  S
C2281      C3517   1.484       .  S
C2281      N2299   1.331       .  A
N2282      N2299   1.305       .  A
N2282      N2304   1.322       .  A
N2282     Co2319   2.030       .  S
C2283      C2321   1.501       .  S
C2283      N2308   1.375       .  A
C2283      H2328   1.081       .  S
H2284      C2325   1.081       .  S
C2285      C2289   1.449       .  S
C2285      N2309   1.327       .  A
C2285      H2314   1.082       .  S
Co2286     N2304   2.121       .  S
Co2286     N2294   2.103       .  S
Co2286     N2326   2.042       .  S
Co2286     N2302   2.147       .  S
Co2286    Cl2330   2.474       .  S
N2287      C2325   1.372       .  A
N2287      N2294   1.325       .  A
N2287     Co2288   2.193       .  S
Co2288     N2291   2.137       .  S
Co2288     N2308   2.190       .  S
Co2288     N2295   2.122       .  S
Co2288    Cl2330   2.515       .  S
C2289      C2364   1.487       .  S
C2289      N2327   1.363       .  A
N2290      N2297   1.316       .  A
N2290      N2320   1.335       .  A
N2290     Co2323   2.110       .  S
N2291      N2309   1.330       .  A
N2291      N2327   1.340       .  A
N2292      C2321   1.364       .  A
N2292      N2302   1.338       .  A
H2293      C2318   1.079       .  S
N2294      N2315   1.326       .  A
N2295      N2313   1.323       .  A
N2295      N2300   1.332       .  A
C2296      C2324   1.447       .  S
C2296      N2300   1.363       .  A
N2297      C2312   1.350       .  A
N2297     Co2319   2.103       .  S
C2298      C2301   1.449       .  S
C2298      N2326   1.342       .  A
C2298      H2332   1.081       .  S
C2301      C3414   1.420       .  S
C2301      N2322   1.332       .  A
N2302      N2308   1.322       .  A
N2303      C2329   1.352       .  A
N2303      N2305   1.313       .  A
N2303     Co2319   2.099       .  S
N2304      C2318   1.354       .  A
N2305      N2333   1.341       .  A
N2305     Co2323   2.142       .  S
H2306      C2329   1.081       .  S
H2307      C2324   1.080       .  S
N2309     Co2323   2.097       .  S
N2310      N2322   1.301       .  A
N2310      N2326   1.322       .  A
N2310     Co2319   2.044       .  S
C2311      C2325   1.499       .  S
C2311      C2554   1.530       .  S
C2311      N2315   1.352       .  A
C2312      C2331   1.468       .  S
C2312      H2316   1.082       .  S
N2313      C2324   1.316       .  A
N2313     Co2323   2.063       .  S
C2317      C2329   1.469       .  S
C2317      C2529   1.527       .  S
C2317      N2333   1.369       .  A
Co2319    Cl2330   2.428       .  S
N2320      C2331   1.359       .  A
Co2323    Cl2330   2.437       .  S
C2331      C2460   1.506       .  S
C2334      C2371   1.471       .  S
C2334      C2440   1.494       .  S
C2334      N2352   1.351       .  A
N2335      N2352   1.329       .  A
N2335      N2357   1.318       .  A
N2335     Co2372   2.093       .  S
C2336      C2374   1.476       .  S
C2336      N2361   1.354       .  A
C2336      H2381   1.081       .  S
H2337      C2378   1.081       .  S
C2338      C2342   1.457       .  S
C2338      N2362   1.342       .  A
C2338      H2367   1.081       .  S
Co2339     N2357   2.103       .  S
Co2339     N2347   2.094       .  S
Co2339     N2379   2.134       .  S
Co2339     N2355   2.060       .  S
Co2339    Cl2383   2.416       .  S
N2340      C2378   1.362       .  A
N2340      N2347   1.329       .  A
N2340     Co2341   2.139       .  S
Co2341     N2344   2.189       .  S
Co2341     N2361   2.115       .  S
Co2341     N2348   2.198       .  S
Co2341    Cl2383   2.532       .  S
C2342      C2629   1.538       .  S
C2342      N2380   1.380       .  A
N2343      N2350   1.322       .  A
N2343      N2373   1.315       .  A
N2343     Co2376   2.029       .  S
N2344      N2362   1.320       .  A
N2344      N2380   1.352       .  A
N2345      C2374   1.336       .  A
N2345      N2355   1.304       .  A
H2346      C2371   1.082       .  S
N2347      N2368   1.314       .  A
N2348      N2366   1.320       .  A
N2348      N2353   1.353       .  A
C2349      C2377   1.462       .  S
C2349      N2353   1.380       .  A
N2350      C2365   1.328       .  A
N2350     Co2372   2.059       .  S
C2351      C2354   1.481       .  S
C2351      N2379   1.359       .  A
C2351      H2385   1.082       .  S
C2354      C2437   1.521       .  S
C2354      N2375   1.357       .  A
N2355      N2361   1.326       .  A
N2356      C2382   1.320       .  A
N2356      N2358   1.322       .  A
N2356     Co2372   2.039       .  S
N2357      C2371   1.352       .  A
N2358      N2386   1.325       .  A
N2358     Co2376   2.079       .  S
H2359      C2382   1.082       .  S
H2360      C2377   1.081       .  S
N2362     Co2376   2.100       .  S
N2363      N2375   1.335       .  A
N2363      N2379   1.316       .  A
N2363     Co2372   2.102       .  S
C2364      C2378   1.480       .  S
C2364      N2368   1.341       .  A
C2365      C2384   1.445       .  S
C2365      H2369   1.082       .  S
N2366      C2377   1.336       .  A
N2366     Co2376   2.087       .  S
C2370      C2382   1.444       .  S
C2370      C3677   1.461       .  S
C2370      N2386   1.349       .  A
Co2372    Cl2383   2.458       .  S
N2373      C2384   1.333       .  A
Co2376    Cl2383   2.432       .  S
C2384      C3734   1.421       .  S
C2387      C2424   1.414       .  S
C2387      C3684   1.404       .  S
C2387      N2405   1.349       .  A
N2388      N2405   1.309       .  A
N2388      N2410   1.322       .  A
N2388     Co2425   2.074       .  S
C2389      C2427   1.495       .  S
C2389      N2414   1.368       .  A
C2389      H2434   1.081       .  S
H2390      C2431   1.081       .  S
C2391      C2395   1.452       .  S
C2391      N2415   1.321       .  A
C2391      H2420   1.082       .  S
Co2392     N2410   1.995       .  S
Co2392     N2400   2.066       .  S
Co2392     N2432   2.013       .  S
Co2392     N2408   2.061       .  S
Co2392    Cl2436   2.420       .  S
N2393      C2431   1.374       .  A
N2393      N2400   1.312       .  A
N2393     Co2394   2.167       .  S
Co2394     N2397   2.084       .  S
Co2394     N2414   2.172       .  S
Co2394     N2401   2.090       .  S
Co2394    Cl2436   2.519       .  S
C2395      C2470   1.451       .  S
C2395      N2433   1.352       .  A
N2396      N2403   1.314       .  A
N2396      N2426   1.338       .  A
N2396     Co2429   2.119       .  S
N2397      N2415   1.325       .  A
N2397      N2433   1.328       .  A
N2398      C2427   1.345       .  A
N2398      N2408   1.321       .  A
H2399      C2424   1.080       .  S
N2400      N2421   1.321       .  A
N2401      N2419   1.325       .  A
N2401      N2406   1.328       .  A
C2402      C2430   1.451       .  S
C2402      C2501   1.459       .  S
C2402      N2406   1.354       .  A
N2403      C2418   1.354       .  A
N2403     Co2425   2.110       .  S
C2404      C2407   1.436       .  S
C2404      N2432   1.329       .  A
C2404      H2438   1.082       .  S
C2407      C3587   1.414       .  S
C2407      N2428   1.346       .  A
N2408      N2414   1.318       .  A
N2409      C2435   1.360       .  A
N2409      N2411   1.323       .  A
N2409     Co2425   2.154       .  S
N2410      C2424   1.322       .  A
N2411      N2439   1.337       .  A
N2411     Co2429   2.123       .  S
H2412      C2435   1.081       .  S
H2413      C2430   1.080       .  S
N2415     Co2429   2.081       .  S
N2416      N2428   1.313       .  A
N2416      N2432   1.322       .  A
N2416     Co2425   2.070       .  S
C2417      C2431   1.504       .  S
C2417      N2421   1.341       .  A
C2418      C2437   1.472       .  S
C2418      H2422   1.081       .  S
N2419      C2430   1.320       .  A
N2419     Co2429   2.077       .  S
C2423      C2435   1.485       .  S
C2423      N2439   1.360       .  A
Co2425    Cl2436   2.463       .  S
N2426      C2437   1.363       .  A
C2427      C2788   1.509   1_455  S
Co2429    Cl2436   2.413       .  S
C2440      C2477   1.478       .  S
C2440      N2458   1.347       .  A
N2441      N2458   1.327       .  A
N2441      N2463   1.314       .  A
N2441     Co2478   2.068       .  S
C2442      C2480   1.463       .  S
C2442      N2467   1.349       .  A
C2442      H2487   1.081       .  S
H2443      C2484   1.081       .  S
C2444      C2448   1.469       .  S
C2444      N2468   1.337       .  A
C2444      H2473   1.081       .  S
Co2445     N2463   2.122       .  S
Co2445     N2453   2.062       .  S
Co2445     N2485   2.118       .  S
Co2445     N2461   2.071       .  S
Co2445    Cl2489   2.433       .  S
N2446      C2484   1.350       .  A
N2446      N2453   1.325       .  A
N2446     Co2447   2.090       .  S
Co2447     N2450   2.154       .  S
Co2447     N2467   2.087       .  S
Co2447     N2454   2.132       .  S
Co2447    Cl2489   2.507       .  S
C2448      N2486   1.368       .  A
N2449      N2456   1.317       .  A
N2449      N2479   1.334       .  A
N2449     Co2482   2.128       .  S
N2450      N2468   1.323       .  A
N2450      N2486   1.346       .  A
N2451      C2480   1.343       .  A
N2451      N2461   1.307       .  A
H2452      C2477   1.082       .  S
N2453      N2474   1.305       .  A
N2454      N2472   1.321       .  A
N2454      N2459   1.347       .  A
C2455      C2483   1.478       .  S
C2455      N2459   1.366       .  A
N2456      C2471   1.315       .  A
N2456     Co2478   2.023       .  S
C2457      C2460   1.481       .  S
C2457      N2485   1.357       .  A
C2457      H2491   1.082       .  S
C2460      N2481   1.351       .  A
N2461      N2467   1.324       .  A
N2462      C2488   1.309       .  A
N2462      N2464   1.318       .  A
N2462     Co2478   2.014       .  S
N2463      C2477   1.354       .  A
N2464      N2492   1.323       .  A
N2464     Co2482   2.062       .  S
H2465      C2488   1.081       .  S
H2466      C2483   1.081       .  S
N2468     Co2482   2.112       .  S
N2469      N2481   1.331       .  A
N2469      N2485   1.313       .  A
N2469     Co2478   2.093       .  S
C2470      C2484   1.466       .  S
C2470      N2474   1.337       .  A
C2471      C2490   1.438       .  S
C2471      H2475   1.081       .  S
N2472      C2483   1.341       .  A
N2472     Co2482   2.140       .  S
C2476      C2488   1.428       .  S
C2476      C3527   1.425       .  S
C2476      N2492   1.350       .  A
Co2478    Cl2489   2.418       .  S
N2479      C2490   1.368       .  A
C2480      C2508   1.458       .  S
Co2482    Cl2489   2.460       .  S
C2490      C3747   1.479       .  S
C2493      C2530   1.444       .  S
C2493      C3844   1.425       .  S
C2493      N2511   1.341       .  A
N2494      N2511   1.313       .  A
N2494      N2516   1.323       .  A
N2494     Co2531   2.059       .  S
C2495      C2533   1.495       .  S
C2495      N2520   1.369       .  A
C2495      H2540   1.081       .  S
H2496      C2537   1.081       .  S
C2497      C2501   1.446       .  S
C2497      N2521   1.319       .  A
C2497      H2526   1.080       .  S
Co2498     N2516   2.063       .  S
Co2498     N2506   2.065       .  S
Co2498     N2538   2.004       .  S
Co2498     N2514   2.103       .  S
Co2498    Cl2542   2.425       .  S
N2499      C2537   1.382       .  A
N2499      N2506   1.312       .  A
N2499     Co2500   2.197       .  S
Co2500     N2503   2.099       .  S
Co2500     N2520   2.170       .  S
Co2500     N2507   2.105       .  S
Co2500    Cl2542   2.524       .  S
C2501      N2539   1.354       .  A
N2502      N2509   1.315       .  A
N2502      N2532   1.342       .  A
N2502     Co2535   2.133       .  S
N2503      N2521   1.330       .  A
N2503      N2539   1.331       .  A
N2504      C2533   1.355       .  A
N2504      N2514   1.327       .  A
H2505      C2530   1.078       .  S
N2506      N2527   1.321       .  A
N2507      N2525   1.325       .  A
N2507      N2512   1.328       .  A
C2508      C2536   1.452       .  S
C2508      N2512   1.356       .  A
N2509      C2524   1.353       .  A
N2509     Co2531   2.119       .  S
C2510      C2513   1.426       .  S
C2510      N2538   1.323       .  A
C2510      H2544   1.082       .  S
C2513      C3424   1.437       .  S
C2513      N2534   1.351       .  A
N2514      N2520   1.319       .  A
N2515      C2541   1.357       .  A
N2515      N2517   1.321       .  A
N2515     Co2531   2.129       .  S
N2516      C2530   1.337       .  A
N2517      N2545   1.338       .  A
N2517     Co2535   2.130       .  S
H2518      C2541   1.081       .  S
H2519      C2536   1.083       .  S
N2521     Co2535   2.083       .  S
N2522      N2534   1.316       .  A
N2522      N2538   1.320       .  A
N2522     Co2531   2.085       .  S
C2523      C2537   1.515       .  S
C2523      C2819   1.541   1_455  S
C2523      N2527   1.344       .  A
C2524      C2543   1.473       .  S
C2524      H2528   1.081       .  S
N2525      C2536   1.321       .  A
N2525     Co2535   2.070       .  S
C2529      C2541   1.478       .  S
C2529      N2545   1.361       .  A
Co2531    Cl2542   2.467       .  S
N2532      C2543   1.366       .  A
Co2535    Cl2542   2.425       .  S
C2546      C2583   1.484       .  S
C2546      C2741   1.519       .  S
C2546      N2564   1.358       .  A
N2547      N2564   1.335       .  A
N2547      N2569   1.313       .  A
N2547     Co2584   2.106       .  S
C2548      C2586   1.466       .  S
C2548      N2573   1.348       .  A
C2548      H2593   1.081       .  S
H2549      C2590   1.081       .  S
C2550      C2554   1.459       .  S
C2550      N2574   1.340       .  A
C2550      H2579   1.082       .  S
Co2551     N2569   2.131       .  S
Co2551     N2559   2.086       .  S
Co2551     N2591   2.137       .  S
Co2551     N2567   2.078       .  S
Co2551    Cl2595   2.423       .  S
N2552      C2590   1.357       .  A
N2552      N2559   1.330       .  A
N2552     Co2553   2.122       .  S
Co2553     N2556   2.172       .  S
Co2553     N2573   2.104       .  S
Co2553     N2560   2.186       .  S
Co2553    Cl2595   2.508       .  S
C2554      N2592   1.377       .  A
N2555      N2562   1.321       .  A
N2555      N2585   1.314       .  A
N2555     Co2588   2.032       .  S
N2556      N2574   1.317       .  A
N2556      N2592   1.349       .  A
N2557      C2586   1.338       .  A
N2557      N2567   1.307       .  A
H2558      C2583   1.082       .  S
N2559      N2580   1.309       .  A
N2560      N2578   1.319       .  A
N2560      N2565   1.353       .  A
C2561      C2589   1.467       .  S
C2561      N2565   1.379       .  A
N2562      C2577   1.324       .  A
N2562     Co2584   2.051       .  S
C2563      C2566   1.486       .  S
C2563      N2591   1.358       .  A
C2563      H2597   1.082       .  S
C2566      C2831   1.518       .  S
C2566      N2587   1.356       .  A
N2567      N2573   1.329       .  A
N2568      C2594   1.320       .  A
N2568      N2570   1.322       .  A
N2568     Co2584   2.053       .  S
N2569      C2583   1.357       .  A
N2570      N2598   1.323       .  A
N2570     Co2588   2.074       .  S
H2571      C2594   1.080       .  S
H2572      C2589   1.080       .  S
N2574     Co2588   2.092       .  S
N2575      N2587   1.333       .  A
N2575      N2591   1.311       .  A
N2575     Co2584   2.086       .  S
C2576      C2590   1.473       .  S
C2576      C2607   1.470       .  S
C2576      N2580   1.339       .  A
C2577      C2596   1.441       .  S
C2577      H2581   1.082       .  S
N2578      C2589   1.336       .  A
N2578     Co2588   2.102       .  S
C2582      C2594   1.443       .  S
C2582      C3257   1.463       .  S
C2582      N2598   1.348       .  A
Co2584    Cl2595   2.454       .  S
N2585      C2596   1.337       .  A
C2586      C2682   1.447       .  S
Co2588    Cl2595   2.437       .  S
C2596      C3497   1.421       .  S
C2599      C2636   1.478       .  S
C2599      C3754   1.482       .  S
C2599      N2617   1.334       .  A
N2600      N2617   1.308       .  A
N2600      N2622   1.323       .  A
N2600     Co2637   2.049       .  S
C2601      C2639   1.498       .  S
C2601      N2626   1.372       .  A
C2601      H2646   1.081       .  S
H2602      C2643   1.081       .  S
C2603      C2607   1.451       .  S
C2603      N2627   1.322       .  A
C2603      H2632   1.082       .  S
Co2604     N2622   2.109       .  S
Co2604     N2612   2.113       .  S
Co2604     N2644   2.026       .  S
Co2604     N2620   2.110       .  S
Co2604    Cl2648   2.464       .  S
N2605      C2643   1.372       .  A
N2605      N2612   1.325       .  A
N2605     Co2606   2.195       .  S
Co2606     N2609   2.118       .  S
Co2606     N2626   2.166       .  S
Co2606     N2613   2.127       .  S
Co2606    Cl2648   2.509       .  S
C2607      N2645   1.359       .  A
N2608      N2615   1.317       .  A
N2608      N2638   1.335       .  A
N2608     Co2641   2.115       .  S
N2609      N2627   1.328       .  A
N2609      N2645   1.334       .  A
N2610      C2639   1.352       .  A
N2610      N2620   1.327       .  A
H2611      C2636   1.081       .  S
N2612      N2633   1.330       .  A
N2613      N2631   1.326       .  A
N2613      N2618   1.337       .  A
C2614      C2642   1.443       .  S
C2614      C2692   1.470       .  S
C2614      N2618   1.362       .  A
N2615      C2630   1.347       .  A
N2615     Co2637   2.096       .  S
C2616      C2619   1.441       .  S
C2616      N2644   1.327       .  A
C2616      H2650   1.081       .  S
C2619      C2904   1.420       .  S
C2619      N2640   1.344       .  A
N2620      N2626   1.319       .  A
N2621      C2647   1.351       .  A
N2621      N2623   1.313       .  A
N2621     Co2637   2.098       .  S
N2622      C2636   1.356       .  A
N2623      N2651   1.338       .  A
N2623     Co2641   2.127       .  S
H2624      C2647   1.082       .  S
H2625      C2642   1.082       .  S
N2627     Co2641   2.084       .  S
N2628      N2640   1.311       .  A
N2628      N2644   1.317       .  A
N2628     Co2637   2.055       .  S
C2629      C2643   1.497       .  S
C2629      N2633   1.357       .  A
C2630      C2649   1.464       .  S
C2630      H2634   1.082       .  S
N2631      C2642   1.319       .  A
N2631     Co2641   2.065       .  S
C2635      C2647   1.468       .  S
C2635      C2794   1.517       .  S
C2635      N2651   1.365       .  A
Co2637    Cl2648   2.429       .  S
N2638      C2649   1.360       .  A
Co2641    Cl2648   2.438       .  S
C2649      C2755   1.502       .  S
C2652      C2689   1.484       .  S
C2652      C2811   1.527       .  S
C2652      N2670   1.357       .  A
N2653      N2670   1.336       .  A
N2653      N2675   1.315       .  A
N2653     Co2690   2.101       .  S
C2654      C2692   1.469       .  S
C2654      N2679   1.355       .  A
C2654      H2699   1.081       .  S
H2655      C2696   1.081       .  S
C2656      C2660   1.436       .  S
C2656      N2680   1.327       .  A
C2656      H2685   1.082       .  S
Co2657     N2675   2.137       .  S
Co2657     N2665   2.089       .  S
Co2657     N2697   2.128       .  S
Co2657     N2673   2.091       .  S
Co2657    Cl2701   2.402       .  S
N2658      C2696   1.348       .  A
N2658      N2665   1.330       .  A
N2658     Co2659   2.090       .  S
Co2659     N2662   2.194       .  S
Co2659     N2679   2.107       .  S
Co2659     N2666   2.184       .  S
Co2659    Cl2701   2.542       .  S
C2660      N2698   1.387       .  A
N2661      N2668   1.321       .  A
N2661      N2691   1.313       .  A
N2661     Co2694   2.027       .  S
N2662      N2680   1.307       .  A
N2662      N2698   1.355       .  A
N2663      C2692   1.343       .  A
N2663      N2673   1.311       .  A
H2664      C2689   1.082       .  S
N2665      N2686   1.308       .  A
N2666      N2684   1.320       .  A
N2666      N2671   1.351       .  A
C2667      C2695   1.464       .  S
C2667      N2671   1.377       .  A
N2668      C2683   1.328       .  A
N2668     Co2690   2.068       .  S
C2669      C2672   1.472       .  S
C2669      N2697   1.354       .  A
C2669      H2703   1.082       .  S
C2672      C2808   1.519       .  S
C2672      N2693   1.363       .  A
N2673      N2679   1.327       .  A
N2674      C2700   1.335       .  A
N2674      N2676   1.320       .  A
N2674     Co2690   2.073       .  S
N2675      C2689   1.361       .  A
N2676      N2704   1.310       .  A
N2676     Co2694   1.996       .  S
H2677      C2700   1.082       .  S
H2678      C2695   1.080       .  S
N2680     Co2694   2.027       .  S
N2681      N2693   1.337       .  A
N2681      N2697   1.326       .  A
N2681     Co2690   2.139       .  S
C2682      C2696   1.462       .  S
C2682      N2686   1.341       .  A
C2683      C2702   1.461       .  S
C2683      H2687   1.082       .  S
N2684      C2695   1.333       .  A
N2684     Co2694   2.092       .  S
C2688      C2700   1.460       .  S
C2688      C3557   1.416       .  S
C2688      N2704   1.327       .  A
Co2690    Cl2701   2.491       .  S
N2691      C2702   1.330       .  A
Co2694    Cl2701   2.398       .  S
C2702      C3777   1.426       .  S
C2705      C2742   1.419       .  S
C2705      C3764   1.414       .  S
C2705      N2723   1.354       .  A
N2706      N2723   1.321       .  A
N2706      N2728   1.320       .  A
N2706     Co2743   2.077       .  S
C2707      C2745   1.493       .  S
C2707      N2732   1.368       .  A
C2707      H2752   1.081       .  S
H2708      C2749   1.081       .  S
C2709      C2713   1.438       .  S
C2709      N2733   1.312       .  A
C2709      H2738   1.078       .  S
Co2710     N2728   2.028       .  S
Co2710     N2718   2.077       .  S
Co2710     N2750   2.051       .  S
Co2710     N2726   2.068       .  S
Co2710    Cl2754   2.429       .  S
N2711      C2749   1.374       .  A
N2711      N2718   1.313       .  A
N2711     Co2712   2.164       .  S
Co2712     N2715   2.127       .  S
Co2712     N2732   2.187       .  S
Co2712     N2719   2.079       .  S
Co2712    Cl2754   2.507       .  S
C2713      C2773   1.472       .  S
C2713      N2751   1.365       .  A
N2714      N2721   1.313       .  A
N2714      N2744   1.336       .  A
N2714     Co2747   2.128       .  S
N2715      N2733   1.324       .  A
N2715      N2751   1.337       .  A
N2716      C2745   1.349       .  A
N2716      N2726   1.323       .  A
H2717      C2742   1.073       .  S
N2718      N2739   1.319       .  A
N2719      N2737   1.325       .  A
N2719      N2724   1.327       .  A
C2720      C2748   1.457       .  S
C2720      C2851   1.455       .  S
C2720      N2724   1.350       .  A
N2721      C2736   1.346       .  A
N2721     Co2743   2.069       .  S
C2722      C2725   1.451       .  S
C2722      N2750   1.337       .  A
C2722      H2756   1.081       .  S
C2725      C3504   1.418       .  S
C2725      N2746   1.332       .  A
N2726      N2732   1.321       .  A
N2727      C2753   1.358       .  A
N2727      N2729   1.321       .  A
N2727     Co2743   2.154       .  S
N2728      C2742   1.318       .  A
N2729      N2757   1.334       .  A
N2729     Co2747   2.102       .  S
H2730      C2753   1.081       .  S
H2731      C2748   1.082       .  S
N2733     Co2747   2.051       .  S
N2734      N2746   1.305       .  A
N2734      N2750   1.320       .  A
N2734     Co2743   2.024       .  S
C2735      C2749   1.505       .  S
C2735      N2739   1.338       .  A
C2736      C2755   1.460       .  S
C2736      H2740   1.081       .  S
N2737      C2748   1.325       .  A
N2737     Co2747   2.086       .  S
C2741      C2753   1.483       .  S
C2741      N2757   1.356       .  A
Co2743    Cl2754   2.463       .  S
N2744      C2755   1.362       .  A
Co2747    Cl2754   2.415       .  S
C2758      C2795   1.450       .  S
C2758      C3564   1.433       .  S
C2758      N2776   1.340       .  A
N2759      N2776   1.306       .  A
N2759      N2781   1.321       .  A
N2759     Co2796   2.045       .  S
C2760      C2798   1.492       .  S
C2760      N2785   1.368       .  A
C2760      H2805   1.081       .  S
H2761      C2802   1.081       .  S
C2762      C2766   1.447       .  S
C2762      N2786   1.318       .  A
C2762      H2791   1.082       .  S
Co2763     N2781   2.059       .  S
Co2763     N2771   2.092       .  S
Co2763     N2803   2.067       .  S
Co2763     N2779   2.102       .  S
Co2763    Cl2807   2.447       .  S
N2764      C2802   1.366       .  A
N2764      N2771   1.317       .  A
N2764     Co2765   2.143       .  S
Co2765     N2768   2.096       .  S
Co2765     N2785   2.168       .  S
Co2765     N2772   2.084       .  S
Co2765    Cl2807   2.514       .  S
C2766      C2841   1.453       .  S
C2766      N2804   1.355       .  A
N2767      N2774   1.312       .  A
N2767      N2797   1.339       .  A
N2767     Co2800   2.142       .  S
N2768      N2786   1.325       .  A
N2768      N2804   1.329       .  A
N2769      C2798   1.353       .  A
N2769      N2779   1.326       .  A
H2770      C2795   1.081       .  S
N2771      N2792   1.323       .  A
N2772      N2790   1.325       .  A
N2772      N2777   1.332       .  A
C2773      C2801   1.460       .  S
C2773      N2777   1.353       .  A
N2774      C2789   1.350       .  A
N2774     Co2796   2.085       .  S
C2775      C2778   1.461       .  S
C2775      N2803   1.342       .  A
C2775      H2809   1.079       .  S
C2778      C2894   1.425       .  S
C2778      N2799   1.327       .  A
N2779      N2785   1.321       .  A
N2780      C2806   1.353       .  A
N2780      N2782   1.318       .  A
N2780     Co2796   2.128       .  S
N2781      C2795   1.340       .  A
N2782      N2810   1.337       .  A
N2782     Co2800   2.118       .  S
H2783      C2806   1.081       .  S
H2784      C2801   1.079       .  S
N2786     Co2800   2.069       .  S
N2787      N2799   1.300       .  A
N2787      N2803   1.320       .  A
N2787     Co2796   2.011       .  S
C2788      C2802   1.487       .  S
C2788      N2792   1.349       .  A
C2789      C2808   1.466       .  S
C2789      H2793   1.082       .  S
N2790      C2801   1.318       .  A
N2790     Co2800   2.093       .  S
C2794      C2806   1.474       .  S
C2794      N2810   1.361       .  A
Co2796    Cl2807   2.443       .  S
N2797      C2808   1.368       .  A
Co2800    Cl2807   2.425       .  S
C2811      C2848   1.481       .  S
C2811      N2829   1.359       .  A
N2812      N2829   1.337       .  A
N2812      N2834   1.316       .  A
N2812     Co2849   2.118       .  S
C2813      C2851   1.470       .  S
C2813      N2838   1.349       .  A
C2813      H2858   1.081       .  S
H2814      C2855   1.081       .  S
C2815      C2819   1.458       .  S
C2815      N2839   1.336       .  A
C2815      H2844   1.082       .  S
Co2816     N2834   2.128       .  S
Co2816     N2824   2.081       .  S
Co2816     N2856   2.114       .  S
Co2816     N2832   2.061       .  S
Co2816    Cl2860   2.407       .  S
N2817      C2855   1.350       .  A
N2817      N2824   1.328       .  A
N2817     Co2818   2.091       .  S
Co2818     N2821   2.192       .  S
Co2818     N2838   2.101       .  S
Co2818     N2825   2.170       .  S
Co2818    Cl2860   2.533       .  S
C2819      N2857   1.382       .  A
N2820      N2827   1.323       .  A
N2820      N2850   1.317       .  A
N2820     Co2853   2.039       .  S
N2821      N2839   1.314       .  A
N2821      N2857   1.355       .  A
N2822      C2851   1.337       .  A
N2822      N2832   1.308       .  A
H2823      C2848   1.082       .  S
N2824      N2845   1.307       .  A
N2825      N2843   1.319       .  A
N2825      N2830   1.349       .  A
C2826      C2854   1.465       .  S
C2826      N2830   1.375       .  A
N2827      C2842   1.322       .  A
N2827     Co2849   2.057       .  S
C2828      C2831   1.469       .  S
C2828      N2856   1.352       .  A
C2828      H2862   1.082       .  S
C2831      N2852   1.364       .  A
N2832      N2838   1.325       .  A
N2833      C2859   1.333       .  A
N2833      N2835   1.324       .  A
N2833     Co2849   2.080       .  S
N2834      C2848   1.359       .  A
N2835      N2863   1.315       .  A
N2835     Co2853   2.032       .  S
H2836      C2859   1.082       .  S
H2837      C2854   1.081       .  S
N2839     Co2853   2.081       .  S
N2840      N2852   1.338       .  A
N2840      N2856   1.321       .  A
N2840     Co2849   2.133       .  S
C2841      C2855   1.463       .  S
C2841      N2845   1.340       .  A
C2842      C2861   1.448       .  S
C2842      H2846   1.082       .  S
N2843      C2854   1.338       .  A
N2843     Co2853   2.102       .  S
C2847      C2859   1.453       .  S
C2847      C3267   1.428       .  S
C2847      N2863   1.331       .  A
Co2849    Cl2860   2.483       .  S
N2850      C2861   1.338       .  A
Co2853    Cl2860   2.427       .  S
C2861      C3787   1.420       .  S
O2864      C2872   1.279       .  A
O2864     Co2884   2.055       .  S
O2865      C2873   1.262       .  A
O2865     Co2885   1.982       .  S
O2866      C2874   1.282       .  A
O2866     Co2886   1.998       .  S
O2867      C2875   1.269       .  A
O2867     Co2887   1.911   1_545  S
O2868      C2874   1.269       .  A
O2868     Co2885   2.009       .  S
O2869      C2875   1.277       .  A
O2869     Co2884   2.046       .  S
O2870      C2873   1.263       .  A
O2870     Co2887   1.942       .  S
O2871      C2872   1.259       .  A
O2871     Co2886   1.874   1_545  S
C2872      C2957   1.428       .  S
C2873      C2914   1.453       .  S
C2874      C2937   1.457       .  S
C2875      C2897   1.440       .  S
O2876      C2889   1.226       .  A
O2876     Co2884   1.938       .  S
O2877      C2890   1.241       .  A
O2877     Co2885   1.910       .  S
O2878      C2891   1.271   1_565  A
O2878     Co2886   1.965       .  S
O2879      C2892   1.275       .  A
O2879     Co2887   1.918       .  S
O2880      C2892   1.282       .  A
O2880     Co2885   2.024       .  S
O2881      C2891   1.266       .  A
O2881     Co2884   2.017       .  S
O2882      C2889   1.247       .  A
O2882     Co2887   1.998   1_545  S
O2883      C2890   1.242       .  A
O2883     Co2886   1.953       .  S
Co2884     O2888   2.041   1_545  S
Co2885     O2888   2.035       .  S
Co2886     O2888   1.897       .  S
Co2887     O2888   1.912       .  S
C2889      C2907   1.426       .  S
C2890      C2947   1.392       .  S
C2891      C2964   1.453       .  S
C2892      C2927   1.430       .  S
C2893      H2900   1.085       .  S
C2893      C2894   1.409       .  A
C2893      C2898   1.387       .  A
C2894      C2895   1.400       .  A
C2895      C2896   1.384       .  A
C2895     Br2902   1.921       .  S
C2896      H2901   1.085       .  S
C2896      C2897   1.406       .  A
C2897      C2898   1.386       .  A
C2898     Br2899   1.911       .  S
C2903      H2910   1.085       .  S
C2903      C2904   1.406       .  A
C2903      C2908   1.381       .  A
C2904      C2905   1.387       .  A
C2905      C2906   1.378       .  A
C2905     Br2912   1.921       .  S
C2906      H2911   1.082       .  S
C2906      C2907   1.407       .  A
C2907      C2908   1.391       .  A
C2908     Br2909   1.918       .  S
C2913      H2920   1.083   1_565  S
C2913      C2914   1.408       .  A
C2913      C2918   1.389       .  A
C2914      C2915   1.421       .  A
C2915      C2916   1.389       .  A
C2915     Br2922   1.922       .  S
C2916      H2921   1.084       .  S
C2916      C2917   1.392       .  A
C2917      C2918   1.393       .  A
C2918     Br2919   1.907   1_565  S
C2923      H2930   1.084       .  S
C2923      C2924   1.413       .  A
C2923      C2928   1.401       .  A
C2924      C2925   1.418       .  A
C2925      C2926   1.399       .  A
C2925     Br2932   1.920       .  S
C2926      H2931   1.084       .  S
C2926      C2927   1.402       .  A
C2927      C2928   1.401       .  A
C2928     Br2929   1.916       .  S
C2933      H2940   1.083       .  S
C2933      C2934   1.393       .  A
C2933      C2938   1.391       .  A
C2934      C2935   1.416       .  A
C2935      C2936   1.387       .  A
C2935     Br2942   1.924       .  S
C2936      H2941   1.083       .  S
C2936      C2937   1.393       .  A
C2937      C2938   1.408       .  A
C2938     Br2939   1.905       .  S
C2943      H2950   1.085       .  S
C2943      C2944   1.393       .  A
C2943      C2948   1.379       .  A
C2944      C2945   1.392       .  A
C2945      C2946   1.378       .  A
C2945     Br2952   1.918       .  S
C2946      H2951   1.085       .  S
C2946      C2947   1.399       .  A
C2947      C2948   1.401       .  A
C2948     Br2949   1.922       .  S
C2953      H2960   1.085       .  S
C2953      C2954   1.399       .  A
C2953      C2958   1.382       .  A
C2954      C2955   1.382       .  A
C2955      C2956   1.365       .  A
C2955     Br2962   1.923       .  S
C2956      H2961   1.082       .  S
C2956      C2957   1.411       .  A
C2957      C2958   1.397       .  A
C2958     Br2959   1.902       .  S
C2963      H2970   1.084       .  S
C2963      C2964   1.410       .  A
C2963      C2968   1.399       .  A
C2964      C2965   1.394       .  A
C2965      C2966   1.386       .  A
C2965     Br2972   1.906       .  S
C2966      H2971   1.086       .  S
C2966      C2967   1.405       .  A
C2967      C2968   1.410       .  A
C2968     Br2969   1.919       .  S
C2973      H2980   1.083       .  S
C2973      C2974   1.414       .  A
C2973      C2978   1.373       .  A
C2974      C2975   1.410       .  A
C2975      C2976   1.372       .  A
C2975     Br2982   1.926       .  S
C2976      H2981   1.085       .  S
C2976      C2977   1.394       .  A
C2977      C2978   1.384       .  A
C2978     Br2979   1.920       .  S
C2983      H2990   1.083       .  S
C2983      C2984   1.400       .  A
C2983      C2988   1.391       .  A
C2984      C2985   1.422       .  A
C2985      C2986   1.382       .  A
C2985     Br2992   1.932       .  S
C2986      H2991   1.084       .  S
C2986      C2987   1.388       .  A
C2987      C2988   1.404       .  A
C2988     Br2989   1.916       .  S
C2993      H3000   1.083       .  S
C2993      C2994   1.405       .  A
C2993      C2998   1.394       .  A
C2994      C2995   1.419       .  A
C2995      C2996   1.376       .  A
C2995     Br3002   1.919       .  S
C2996      H3001   1.086       .  S
C2996      C2997   1.387       .  A
C2997      C2998   1.402       .  A
C2998     Br2999   1.914       .  S
C3003      H3010   1.077   1_556  S
C3003      C3004   1.401       .  A
C3003      C3008   1.395       .  A
C3004      C3005   1.398       .  A
C3005      C3006   1.390       .  A
C3005     Br3012   1.915       .  S
C3006      H3011   1.084       .  S
C3006      C3007   1.408       .  A
C3007      C3008   1.402       .  A
C3008     Br3009   1.917   1_556  S
C3013      H3020   1.076       .  S
C3013      C3014   1.413       .  A
C3013      C3018   1.377       .  A
C3014      C3015   1.410       .  A
C3015      C3016   1.391       .  A
C3015     Br3022   1.915       .  S
C3016      H3021   1.085       .  S
C3016      C3017   1.400       .  A
C3017      C3018   1.388       .  A
C3018     Br3019   1.925       .  S
C3023      H3030   1.085       .  S
C3023      C3024   1.406       .  A
C3023      C3028   1.370       .  A
C3024      C3025   1.399       .  A
C3025      C3026   1.383       .  A
C3025     Br3032   1.918       .  S
C3026      H3031   1.085       .  S
C3026      C3027   1.399       .  A
C3027      C3028   1.391       .  A
C3028     Br3029   1.921       .  S
C3033      H3040   1.078       .  S
C3033      C3034   1.400       .  A
C3033      C3038   1.365       .  A
C3034      C3035   1.401       .  A
C3035      C3036   1.396       .  A
C3035     Br3042   1.911       .  S
C3036      H3041   1.083       .  S
C3036      C3037   1.402       .  A
C3037      C3038   1.395       .  A
C3038     Br3039   1.928       .  S
C3043      H3050   1.085       .  S
C3043      C3044   1.392       .  A
C3043      C3048   1.374       .  A
C3044      C3045   1.403       .  A
C3045      C3046   1.379       .  A
C3045     Br3052   1.918       .  S
C3046      H3051   1.084       .  S
C3046      C3047   1.394       .  A
C3047      C3048   1.405       .  A
C3048     Br3049   1.924       .  S
C3053      H3060   1.083       .  S
C3053      C3054   1.405       .  A
C3053      C3058   1.383       .  A
C3054      C3055   1.417       .  A
C3055      C3056   1.377       .  A
C3055     Br3062   1.922       .  S
C3056      H3061   1.085       .  S
C3056      C3057   1.386       .  A
C3057      C3058   1.395       .  A
C3058     Br3059   1.918       .  S
C3063      H3070   1.083       .  S
C3063      C3064   1.409       .  A
C3063      C3068   1.381       .  A
C3064      C3065   1.415       .  A
C3065      C3066   1.392       .  A
C3065     Br3072   1.922       .  S
C3066      H3071   1.084       .  S
C3066      C3067   1.401       .  A
C3067      C3068   1.400       .  A
C3068     Br3069   1.925       .  S
C3073      H3080   1.083       .  S
C3073      C3074   1.408       .  A
C3073      C3078   1.393       .  A
C3074      C3075   1.415       .  A
C3075      C3076   1.380       .  A
C3075     Br3082   1.929       .  S
C3076      H3081   1.086       .  S
C3076      C3077   1.400       .  A
C3077      C3078   1.400       .  A
C3078     Br3079   1.918       .  S
C3083      H3090   1.084       .  S
C3083      C3084   1.400   1_655  A
C3083      C3088   1.384       .  A
C3084      C3085   1.404   1_455  A
C3085      C3086   1.382       .  A
C3085     Br3092   1.921   1_655  S
C3086      H3091   1.084       .  S
C3086      C3087   1.396       .  A
C3087      C3088   1.399       .  A
C3088     Br3089   1.918       .  S
C3093      H3100   1.080       .  S
C3093      C3094   1.401       .  A
C3093      C3098   1.377       .  A
C3094      C3095   1.403       .  A
C3095      C3096   1.384       .  A
C3095     Br3102   1.912       .  S
C3096      H3101   1.085       .  S
C3096      C3097   1.397       .  A
C3097      C3098   1.389       .  A
C3098     Br3099   1.918       .  S
C3103      H3110   1.083       .  S
C3103      C3104   1.410       .  A
C3103      C3108   1.410       .  A
C3104      C3105   1.404       .  A
C3105      C3106   1.369       .  A
C3105     Br3112   1.900       .  S
C3106      H3111   1.087       .  S
C3106      C3107   1.391       .  A
C3107      C3108   1.408       .  A
C3108     Br3109   1.912       .  S
C3113      H3120   1.083       .  S
C3113      C3114   1.411       .  A
C3113      C3118   1.372       .  A
C3114      C3115   1.406       .  A
C3115      C3116   1.385       .  A
C3115     Br3122   1.915       .  S
C3116      H3121   1.084       .  S
C3116      C3117   1.400       .  A
C3117      C3118   1.390       .  A
C3118     Br3119   1.928       .  S
C3123      H3130   1.084       .  S
C3123      C3124   1.395       .  A
C3123      C3128   1.376       .  A
C3124      C3125   1.421       .  A
C3125      C3126   1.376       .  A
C3125     Br3132   1.930       .  S
C3126      H3131   1.085       .  S
C3126      C3127   1.385       .  A
C3127      C3128   1.409       .  A
C3128     Br3129   1.925       .  S
C3133      H3140   1.081       .  S
C3133      C3134   1.403       .  A
C3133      C3138   1.389       .  A
C3134      C3135   1.405       .  A
C3135      C3136   1.396       .  A
C3135     Br3142   1.912       .  S
C3136      H3141   1.082       .  S
C3136      C3137   1.404       .  A
C3137      C3138   1.404       .  A
C3138     Br3139   1.920       .  S
C3143      H3150   1.085       .  S
C3143      C3144   1.401       .  A
C3143      C3148   1.382       .  A
C3144      C3145   1.402       .  A
C3145      C3146   1.385       .  A
C3145     Br3152   1.917       .  S
C3146      H3151   1.084       .  S
C3146      C3147   1.396       .  A
C3147      C3148   1.398       .  A
C3148     Br3149   1.920       .  S
C3153      H3160   1.082       .  S
C3153      C3154   1.402       .  A
C3153      C3158   1.367       .  A
C3154      C3155   1.390       .  A
C3155      C3156   1.375       .  A
C3155     Br3162   1.919       .  S
C3156      H3161   1.085       .  S
C3156      C3157   1.404       .  A
C3157      C3158   1.385       .  A
C3158     Br3159   1.920       .  S
C3163      H3170   1.072       .  S
C3163      C3164   1.396       .  A
C3163      C3168   1.379       .  A
C3164      C3165   1.407       .  A
C3165      C3166   1.396       .  A
C3165     Br3172   1.917       .  S
C3166      H3171   1.082       .  S
C3166      C3167   1.401       .  A
C3167      C3168   1.403       .  A
C3168     Br3169   1.927       .  S
C3173      H3180   1.085       .  S
C3173      C3174   1.390       .  A
C3173      C3178   1.369       .  A
C3174      C3175   1.393       .  A
C3175      C3176   1.381       .  A
C3175     Br3182   1.916       .  S
C3176      H3181   1.084       .  S
C3176      C3177   1.400       .  A
C3177      C3178   1.404       .  A
C3178     Br3179   1.919       .  S
C3183      H3190   1.085       .  S
C3183      C3184   1.399       .  A
C3183      C3188   1.387       .  A
C3184      C3185   1.409       .  A
C3185      C3186   1.385       .  A
C3185     Br3192   1.918       .  S
C3186      H3191   1.084       .  S
C3186      C3187   1.394       .  A
C3187      C3188   1.406       .  A
C3188     Br3189   1.920       .  S
C3193      H3200   1.079       .  S
C3193      C3194   1.414       .  A
C3193      C3198   1.398       .  A
C3194      C3195   1.399       .  A
C3195      C3196   1.397       .  A
C3195     Br3202   1.916       .  S
C3196      H3201   1.083       .  S
C3196      C3197   1.414       .  A
C3197      C3198   1.384       .  A
C3198     Br3199   1.911       .  S
C3203      H3210   1.081       .  S
C3203      C3204   1.409       .  A
C3203      C3208   1.386       .  A
C3204      C3205   1.404       .  A
C3205      C3206   1.391       .  A
C3205     Br3212   1.919       .  S
C3206      H3211   1.084       .  S
C3206      C3207   1.406       .  A
C3207      C3208   1.396       .  A
C3208     Br3209   1.916       .  S
C3213      H3220   1.084       .  S
C3213      C3214   1.406       .  A
C3213      C3218   1.381       .  A
C3214      C3215   1.399       .  A
C3215      C3216   1.369       .  A
C3215     Br3222   1.921       .  S
C3216      H3221   1.085       .  S
C3216      C3217   1.400       .  A
C3217      C3218   1.391       .  A
C3218     Br3219   1.917       .  S
C3223      H3230   1.083       .  S
C3223      C3224   1.406       .  A
C3223      C3228   1.399       .  A
C3224      C3225   1.432       .  A
C3225      C3226   1.393       .  A
C3225     Br3232   1.937       .  S
C3226      H3231   1.085       .  S
C3226      C3227   1.390       .  A
C3227      C3228   1.406       .  A
C3228     Br3229   1.904       .  S
C3233      H3240   1.085       .  S
C3233      C3234   1.396       .  A
C3233      C3238   1.395       .  A
C3234      C3235   1.414       .  A
C3235      C3236   1.410       .  A
C3235     Br3242   1.910       .  S
C3236      H3241   1.083       .  S
C3236      C3237   1.403       .  A
C3237      C3238   1.422       .  A
C3238     Br3239   1.929       .  S
C3243      H3250   1.084       .  S
C3243      C3244   1.396       .  A
C3243      C3248   1.377       .  A
C3244      C3245   1.402       .  A
C3245      C3246   1.384       .  A
C3245     Br3252   1.920   1_556  S
C3246      H3251   1.084       .  S
C3246      C3247   1.396       .  A
C3247      C3248   1.397       .  A
C3248     Br3249   1.919       .  S
C3253      H3260   1.084       .  S
C3253      C3254   1.390       .  A
C3253      C3258   1.386       .  A
C3254      C3255   1.407       .  A
C3255      C3256   1.390       .  A
C3255     Br3262   1.908       .  S
C3256      H3261   1.083       .  S
C3256      C3257   1.392       .  A
C3257      C3258   1.418       .  A
C3258     Br3259   1.925       .  S
C3263      H3270   1.084       .  S
C3263      C3264   1.401       .  A
C3263      C3268   1.379       .  A
C3264      C3265   1.397       .  A
C3265      C3266   1.389       .  A
C3265     Br3272   1.916   1_554  S
C3266      H3271   1.084       .  S
C3266      C3267   1.401       .  A
C3267      C3268   1.394       .  A
C3268     Br3269   1.920       .  S
C3273      H3280   1.078       .  S
C3273      C3274   1.401       .  A
C3273      C3278   1.398       .  A
C3274      C3275   1.413       .  A
C3275      C3276   1.373       .  A
C3275     Br3282   1.911       .  S
C3276      H3281   1.082       .  S
C3276      C3277   1.387       .  A
C3277      C3278   1.405       .  A
C3278     Br3279   1.905       .  S
C3283      H3290   1.084       .  S
C3283      C3284   1.385       .  A
C3283      C3288   1.394       .  A
C3284      C3285   1.410       .  A
C3285      C3286   1.395       .  A
C3285     Br3292   1.897       .  S
C3286      H3291   1.083       .  S
C3286      C3287   1.391       .  A
C3287      C3288   1.433       .  A
C3288     Br3289   1.924       .  S
C3293      H3300   1.084       .  S
C3293      C3294   1.401       .  A
C3293      C3298   1.394       .  A
C3294      C3295   1.401       .  A
C3295      C3296   1.378       .  A
C3295     Br3302   1.926       .  S
C3296      H3301   1.077       .  S
C3296      C3297   1.400       .  A
C3297      C3298   1.406       .  A
C3298     Br3299   1.916       .  S
C3303      H3310   1.082       .  S
C3303      C3304   1.413       .  A
C3303      C3308   1.395       .  A
C3304      C3305   1.394       .  A
C3305      C3306   1.401       .  A
C3305     Br3312   1.914       .  S
C3306      H3311   1.081       .  S
C3306      C3307   1.414       .  A
C3307      C3308   1.392       .  A
C3308     Br3309   1.906       .  S
C3313      H3320   1.083       .  S
C3313      C3314   1.404       .  A
C3313      C3318   1.399       .  A
C3314      C3315   1.400       .  A
C3315      C3316   1.392       .  A
C3315     Br3322   1.918       .  S
C3316      H3321   1.083       .  S
C3316      C3317   1.409       .  A
C3317      C3318   1.410       .  A
C3318     Br3319   1.913       .  S
C3323      H3330   1.084       .  S
C3323      C3324   1.406       .  A
C3323      C3328   1.400       .  A
C3324      C3325   1.401       .  A
C3325      C3326   1.377       .  A
C3325     Br3332   1.928       .  S
C3326      H3331   1.084       .  S
C3326      C3327   1.402       .  A
C3327      C3328   1.402       .  A
C3328     Br3329   1.915       .  S
C3333      H3340   1.083       .  S
C3333      C3334   1.404       .  A
C3333      C3338   1.389       .  A
C3334      C3335   1.420       .  A
C3335      C3336   1.382       .  A
C3335     Br3342   1.929       .  S
C3336      H3341   1.085       .  S
C3336      C3337   1.391       .  A
C3337      C3338   1.400       .  A
C3338     Br3339   1.918       .  S
C3343      H3350   1.084       .  S
C3343      C3344   1.394       .  A
C3343      C3348   1.376       .  A
C3344      C3345   1.391       .  A
C3345      C3346   1.375       .  A
C3345     Br3352   1.905       .  S
C3346      H3351   1.084       .  S
C3346      C3347   1.401       .  A
C3347      C3348   1.405       .  A
C3348     Br3349   1.922   1_545  S
C3353      H3360   1.084       .  S
C3353      C3354   1.400       .  A
C3353      C3358   1.385       .  A
C3354      C3355   1.398       .  A
C3355      C3356   1.375       .  A
C3355     Br3362   1.923       .  S
C3356      H3361   1.084       .  S
C3356      C3357   1.400       .  A
C3357      C3358   1.403       .  A
C3358     Br3359   1.921       .  S
C3363      H3370   1.084       .  S
C3363      C3364   1.401       .  A
C3363      C3368   1.381       .  A
C3364      C3365   1.412       .  A
C3365      C3366   1.375       .  A
C3365     Br3372   1.929       .  S
C3366      H3371   1.084       .  S
C3366      C3367   1.392       .  A
C3367      C3368   1.397       .  A
C3368     Br3369   1.919       .  S
C3373      H3380   1.080       .  S
C3373      C3374   1.403       .  A
C3373      C3378   1.384       .  A
C3374      C3375   1.408       .  A
C3375      C3376   1.399       .  A
C3375     Br3382   1.907       .  S
C3376      H3381   1.084       .  S
C3376      C3377   1.400       .  A
C3377      C3378   1.400       .  A
C3378     Br3379   1.924       .  S
C3383      H3390   1.083       .  S
C3383      C3384   1.392       .  A
C3383      C3388   1.381       .  A
C3384      C3385   1.407       .  A
C3385      C3386   1.373       .  A
C3385     Br3392   1.921       .  S
C3386      H3391   1.085       .  S
C3386      C3387   1.389       .  A
C3387      C3388   1.402       .  A
C3388     Br3389   1.920       .  S
C3393      H3400   1.073       .  S
C3393      C3394   1.385       .  A
C3393      C3398   1.375       .  A
C3394      C3395   1.413       .  A
C3395      C3396   1.409       .  A
C3395     Br3402   1.911       .  S
C3396      H3401   1.083       .  S
C3396      C3397   1.408       .  A
C3397      C3398   1.390       .  A
C3398     Br3399   1.927       .  S
C3403      H3410   1.083       .  S
C3403      C3404   1.418       .  A
C3403      C3408   1.404       .  A
C3404      C3405   1.413       .  A
C3405      C3406   1.394       .  A
C3405     Br3412   1.923       .  S
C3406      H3411   1.077       .  S
C3406      C3407   1.390       .  A
C3407      C3408   1.400       .  A
C3408     Br3409   1.910       .  S
C3413      H3420   1.086       .  S
C3413      C3414   1.397       .  A
C3413      C3418   1.387       .  A
C3414      C3415   1.401       .  A
C3415      C3416   1.387       .  A
C3415     Br3422   1.921       .  S
C3416      H3421   1.084       .  S
C3416      C3417   1.407       .  A
C3417      C3418   1.406       .  A
C3418     Br3419   1.911       .  S
C3423      H3430   1.083       .  S
C3423      C3424   1.406       .  A
C3423      C3428   1.391       .  A
C3424      C3425   1.416       .  A
C3425      C3426   1.389       .  A
C3425     Br3432   1.922       .  S
C3426      H3431   1.082       .  S
C3426      C3427   1.398       .  A
C3427      C3428   1.391       .  A
C3428     Br3429   1.899   1_554  S
C3433      H3440   1.085       .  S
C3433      C3434   1.393       .  A
C3433      C3438   1.376       .  A
C3434      C3435   1.401       .  A
C3435      C3436   1.379       .  A
C3435     Br3442   1.919       .  S
C3436      H3441   1.084       .  S
C3436      C3437   1.392       .  A
C3437      C3438   1.398       .  A
C3438     Br3439   1.916       .  S
C3443      H3450   1.084       .  S
C3443      C3444   1.403       .  A
C3443      C3448   1.388       .  A
C3444      C3445   1.390       .  A
C3445      C3446   1.381       .  A
C3445     Br3452   1.917       .  S
C3446      H3451   1.083       .  S
C3446      C3447   1.413       .  A
C3447      C3448   1.399       .  A
C3448     Br3449   1.913       .  S
C3453      H3460   1.083       .  S
C3453      C3454   1.404       .  A
C3453      C3458   1.385       .  A
C3454      C3455   1.416       .  A
C3455      C3456   1.382       .  A
C3455     Br3462   1.911       .  S
C3456      H3461   1.086       .  S
C3456      C3457   1.393       .  A
C3457      C3458   1.400       .  A
C3458     Br3459   1.918       .  S
C3463      H3470   1.082       .  S
C3463      C3464   1.407       .  A
C3463      C3468   1.402       .  A
C3464      C3465   1.397       .  A
C3465      C3466   1.394       .  A
C3465     Br3472   1.916       .  S
C3466      H3471   1.082       .  S
C3466      C3467   1.414       .  A
C3467      C3468   1.409       .  A
C3468     Br3469   1.912   1_556  S
C3473      H3480   1.083       .  S
C3473      C3474   1.399       .  A
C3473      C3478   1.371       .  A
C3474      C3475   1.416       .  A
C3475      C3476   1.382       .  A
C3475     Br3482   1.921       .  S
C3476      H3481   1.084       .  S
C3476      C3477   1.388       .  A
C3477      C3478   1.402       .  A
C3478     Br3479   1.924       .  S
C3483      H3490   1.084       .  S
C3483      C3484   1.394       .  A
C3483      C3488   1.385       .  A
C3484      C3485   1.400       .  A
C3485      C3486   1.384       .  A
C3485     Br3492   1.923       .  S
C3486      H3491   1.085       .  S
C3486      C3487   1.401       .  A
C3487      C3488   1.407       .  A
C3488     Br3489   1.919       .  S
C3493      H3500   1.081       .  S
C3493      C3494   1.416       .  A
C3493      C3498   1.369       .  A
C3494      C3495   1.404       .  A
C3495      C3496   1.391       .  A
C3495     Br3502   1.918       .  S
C3496      H3501   1.083       .  S
C3496      C3497   1.403       .  A
C3497      C3498   1.380       .  A
C3498     Br3499   1.924       .  S
C3503      H3510   1.084       .  S
C3503      C3504   1.398       .  A
C3503      C3508   1.386       .  A
C3504      C3505   1.398       .  A
C3505      C3506   1.379       .  A
C3505     Br3512   1.925       .  S
C3506      H3511   1.085       .  S
C3506      C3507   1.403       .  A
C3507      C3508   1.399       .  A
C3508     Br3509   1.915       .  S
C3513      H3520   1.076       .  S
C3513      C3514   1.414       .  A
C3513      C3518   1.403       .  A
C3514      C3515   1.396       .  A
C3515      C3516   1.389       .  A
C3515     Br3522   1.911       .  S
C3516      H3521   1.083       .  S
C3516      C3517   1.417       .  A
C3517      C3518   1.402       .  A
C3518     Br3519   1.918       .  S
C3523      H3530   1.082       .  S
C3523      C3524   1.399       .  A
C3523      C3528   1.383       .  A
C3524      C3525   1.404       .  A
C3525      C3526   1.383       .  A
C3525     Br3532   1.914       .  S
C3526      H3531   1.084       .  S
C3526      C3527   1.396       .  A
C3527      C3528   1.402       .  A
C3528     Br3529   1.926       .  S
C3533      H3540   1.084       .  S
C3533      C3534   1.408       .  A
C3533      C3538   1.382       .  A
C3534      C3535   1.396       .  A
C3535      C3536   1.378       .  A
C3535     Br3542   1.919       .  S
C3536      H3541   1.084       .  S
C3536      C3537   1.410       .  A
C3537      C3538   1.410       .  A
C3538     Br3539   1.922       .  S
C3543      H3550   1.083       .  S
C3543      C3544   1.399       .  A
C3543      C3548   1.386       .  A
C3544      C3545   1.403       .  A
C3545      C3546   1.398       .  A
C3545     Br3552   1.913   1_655  S
C3546      H3551   1.084   1_655  S
C3546      C3547   1.406       .  A
C3547      C3548   1.405       .  A
C3548     Br3549   1.911       .  S
C3553      H3560   1.078       .  S
C3553      C3554   1.399       .  A
C3553      C3558   1.363       .  A
C3554      C3555   1.411       .  A
C3555      C3556   1.390       .  A
C3555     Br3562   1.918       .  S
C3556      H3561   1.084       .  S
C3556      C3557   1.394       .  A
C3557      C3558   1.392       .  A
C3558     Br3559   1.927       .  S
C3563      H3570   1.085       .  S
C3563      C3564   1.397       .  A
C3563      C3568   1.387       .  A
C3564      C3565   1.402       .  A
C3565      C3566   1.390       .  A
C3565     Br3572   1.917       .  S
C3566      H3571   1.076       .  S
C3566      C3567   1.401       .  A
C3567      C3568   1.411       .  A
C3568     Br3569   1.926       .  S
C3573      H3580   1.084       .  S
C3573      C3574   1.395       .  A
C3573      C3578   1.376       .  A
C3574      C3575   1.402       .  A
C3575      C3576   1.387       .  A
C3575     Br3582   1.903       .  S
C3576      H3581   1.083       .  S
C3576      C3577   1.397       .  A
C3577      C3578   1.412       .  A
C3578     Br3579   1.919       .  S
C3583      H3590   1.084       .  S
C3583      C3584   1.395       .  A
C3583      C3588   1.384       .  A
C3584      C3585   1.402       .  A
C3585      C3586   1.370       .  A
C3585     Br3592   1.926       .  S
C3586      H3591   1.085       .  S
C3586      C3587   1.393       .  A
C3587      C3588   1.400       .  A
C3588     Br3589   1.914       .  S
C3593      H3600   1.084       .  S
C3593      C3594   1.407       .  A
C3593      C3598   1.399       .  A
C3594      C3595   1.411       .  A
C3595      C3596   1.395       .  A
C3595     Br3602   1.923       .  S
C3596      H3601   1.075       .  S
C3596      C3597   1.397       .  A
C3597      C3598   1.406       .  A
C3598     Br3599   1.912       .  S
C3603      H3610   1.069       .  S
C3603      C3604   1.399       .  A
C3603      C3608   1.365       .  A
C3604      C3605   1.400       .  A
C3605      C3606   1.400       .  A
C3605     Br3612   1.914       .  S
C3606      H3611   1.084       .  S
C3606      C3607   1.409       .  A
C3607      C3608   1.396       .  A
C3608     Br3609   1.932       .  S
C3613      H3620   1.082       .  S
C3613      C3614   1.392       .  A
C3613      C3618   1.395       .  A
C3614      C3615   1.409       .  A
C3615      C3616   1.400       .  A
C3615     Br3622   1.916       .  S
C3616      H3621   1.083       .  S
C3616      C3617   1.408       .  A
C3617      C3618   1.409       .  A
C3618     Br3619   1.900       .  S
C3623      H3630   1.084       .  S
C3623      C3624   1.384       .  A
C3623      C3628   1.390       .  A
C3624      C3625   1.417       .  A
C3625      C3626   1.396       .  A
C3625     Br3632   1.910       .  S
C3626      H3631   1.083       .  S
C3626      C3627   1.394       .  A
C3627      C3628   1.430       .  A
C3628     Br3629   1.919       .  S
C3633      H3640   1.082       .  S
C3633      C3634   1.407       .  A
C3633      C3638   1.378       .  A
C3634      C3635   1.411       .  A
C3635      C3636   1.384       .  A
C3635     Br3642   1.923       .  S
C3636      H3641   1.085       .  S
C3636      C3637   1.399       .  A
C3637      C3638   1.402       .  A
C3638     Br3639   1.922       .  S
C3643      H3650   1.084       .  S
C3643      C3644   1.400       .  A
C3643      C3648   1.390       .  A
C3644      C3645   1.398       .  A
C3645      C3646   1.388       .  A
C3645     Br3652   1.918       .  S
C3646      H3651   1.076       .  S
C3646      C3647   1.402       .  A
C3647      C3648   1.406       .  A
C3648     Br3649   1.915       .  S
C3653      H3660   1.084       .  S
C3653      C3654   1.402       .  A
C3653      C3658   1.389       .  A
C3654      C3655   1.385       .  A
C3655      C3656   1.368       .  A
C3655     Br3662   1.923       .  S
C3656      H3661   1.077       .  S
C3656      C3657   1.406       .  A
C3657      C3658   1.400       .  A
C3658     Br3659   1.906       .  S
C3663      H3670   1.068       .  S
C3663      C3664   1.396       .  A
C3663      C3668   1.382       .  A
C3664      C3665   1.406       .  A
C3665      C3666   1.391       .  A
C3665     Br3672   1.919       .  S
C3666      H3671   1.083       .  S
C3666      C3667   1.406       .  A
C3667      C3668   1.400       .  A
C3668     Br3669   1.923       .  S
C3673      H3680   1.081       .  S
C3673      C3674   1.415       .  A
C3673      C3678   1.390       .  A
C3674      C3675   1.404       .  A
C3675      C3676   1.391       .  A
C3675     Br3682   1.915       .  S
C3676      H3681   1.084       .  S
C3676      C3677   1.407       .  A
C3677      C3678   1.391       .  A
C3678     Br3679   1.915       .  S
C3683      H3690   1.085       .  S
C3683      C3684   1.381       .  A
C3683      C3688   1.373       .  A
C3684      C3685   1.397       .  A
C3685      C3686   1.375       .  A
C3685     Br3692   1.915       .  S
C3686      H3691   1.085       .  S
C3686      C3687   1.394       .  A
C3687      C3688   1.411       .  A
C3688     Br3689   1.912   1_545  S
C3693      H3700   1.084       .  S
C3693      C3694   1.403       .  A
C3693      C3698   1.394       .  A
C3694      C3695   1.396       .  A
C3695      C3696   1.378       .  A
C3695     Br3702   1.922       .  S
C3696      H3701   1.080       .  S
C3696      C3697   1.399       .  A
C3697      C3698   1.403       .  A
C3698     Br3699   1.917       .  S
C3703      H3710   1.083       .  S
C3703      C3704   1.393       .  A
C3703      C3708   1.396       .  A
C3704      C3705   1.407       .  A
C3705      C3706   1.403       .  A
C3705     Br3712   1.911       .  S
C3706      H3711   1.080       .  S
C3706      C3707   1.399       .  A
C3707      C3708   1.422       .  A
C3708     Br3709   1.922       .  S
C3713      H3720   1.076       .  S
C3713      C3714   1.396       .  A
C3713      C3718   1.372       .  A
C3714      C3715   1.412       .  A
C3715      C3716   1.402       .  A
C3715     Br3722   1.907       .  S
C3716      H3721   1.083       .  S
C3716      C3717   1.400       .  A
C3717      C3718   1.404       .  A
C3718     Br3719   1.930       .  S
C3723      H3730   1.084       .  S
C3723      C3724   1.386       .  A
C3723      C3728   1.382       .  A
C3724      C3725   1.411       .  A
C3725      C3726   1.371       .  A
C3725     Br3732   1.926       .  S
C3726      H3731   1.084       .  S
C3726      C3727   1.392       .  A
C3727      C3728   1.417       .  A
C3728     Br3729   1.908       .  S
C3733      H3740   1.084       .  S
C3733      C3734   1.398       .  A
C3733      C3738   1.386       .  A
C3734      C3735   1.397       .  A
C3735      C3736   1.376       .  A
C3735     Br3742   1.923       .  S
C3736      H3741   1.083       .  S
C3736      C3737   1.399       .  A
C3737      C3738   1.401       .  A
C3738     Br3739   1.917       .  S
C3743      H3750   1.081       .  S
C3743      C3744   1.397       .  A
C3743      C3748   1.394       .  A
C3744      C3745   1.412       .  A
C3745      C3746   1.405       .  A
C3745     Br3752   1.912       .  S
C3746      H3751   1.083       .  S
C3746      C3747   1.403       .  A
C3747      C3748   1.417       .  A
C3748     Br3749   1.928       .  S
C3753      H3760   1.084       .  S
C3753      C3754   1.412       .  A
C3753      C3758   1.390       .  A
C3754      C3755   1.401       .  A
C3755      C3756   1.405       .  A
C3755     Br3762   1.912       .  S
C3756      H3761   1.080       .  S
C3756      C3757   1.409       .  A
C3757      C3758   1.397       .  A
C3758     Br3759   1.918       .  S
C3763      H3770   1.085       .  S
C3763      C3764   1.397       .  A
C3763      C3768   1.371       .  A
C3764      C3765   1.399       .  A
C3765      C3766   1.388   1_545  A
C3765     Br3772   1.916   1_545  S
C3766      H3771   1.083       .  S
C3766      C3767   1.403       .  A
C3767      C3768   1.405   1_565  A
C3768     Br3769   1.913       .  S
C3773      H3780   1.082       .  S
C3773      C3774   1.391       .  A
C3773      C3778   1.377       .  A
C3774      C3775   1.414       .  A
C3775      C3776   1.379       .  A
C3775     Br3782   1.927       .  S
C3776      H3781   1.085       .  S
C3776      C3777   1.389       .  A
C3777      C3778   1.410       .  A
C3778     Br3779   1.925       .  S
C3783      H3790   1.083       .  S
C3783      C3784   1.409       .  A
C3783      C3788   1.373       .  A
C3784      C3785   1.409       .  A
C3785      C3786   1.385       .  A
C3785     Br3792   1.921       .  S
C3786      H3791   1.084       .  S
C3786      C3787   1.400       .  A
C3787      C3788   1.391       .  A
C3788     Br3789   1.922       .  S
C3793      H3800   1.084       .  S
C3793      C3794   1.382       .  A
C3793      C3798   1.382       .  A
C3794      C3795   1.412       .  A
C3795      C3796   1.385       .  A
C3795     Br3802   1.902       .  S
C3796      H3801   1.082       .  S
C3796      C3797   1.384       .  A
C3797      C3798   1.428       .  A
C3798     Br3799   1.925       .  S
C3803      H3810   1.084       .  S
C3803      C3804   1.392       .  A
C3803      C3808   1.379       .  A
C3804      C3805   1.392       .  A
C3805      C3806   1.373       .  A
C3805     Br3812   1.922       .  S
C3806      H3811   1.083       .  S
C3806      C3807   1.405       .  A
C3807      C3808   1.405       .  A
C3808     Br3809   1.917       .  S
C3813      H3820   1.082       .  S
C3813      C3814   1.414       .  A
C3813      C3818   1.388       .  A
C3814      C3815   1.408       .  A
C3815      C3816   1.389       .  A
C3815     Br3822   1.937       .  S
C3816      H3821   1.074       .  S
C3816      C3817   1.398       .  A
C3817      C3818   1.386       .  A
C3818     Br3819   1.909       .  S
C3823      H3830   1.065       .  S
C3823      C3824   1.382       .  A
C3823      C3828   1.379       .  A
C3824      C3825   1.408       .  A
C3825      C3826   1.402       .  A
C3825     Br3832   1.908       .  S
C3826      H3831   1.084       .  S
C3826      C3827   1.404       .  A
C3827      C3828   1.400       .  A
C3828     Br3829   1.927       .  S
C3833      H3840   1.082       .  S
C3833      C3834   1.400       .  A
C3833      C3838   1.396       .  A
C3834      C3835   1.388       .  A
C3835      C3836   1.386       .  A
C3835     Br3842   1.918       .  S
C3836      H3841   1.082       .  S
C3836      C3837   1.414       .  A
C3837      C3838   1.410       .  A
C3838     Br3839   1.911       .  S
C3843      H3850   1.085       .  S
C3843      C3844   1.391       .  A
C3843      C3848   1.375       .  A
C3844      C3845   1.404       .  A
C3845      C3846   1.390       .  A
C3845     Br3852   1.917       .  S
C3846      H3851   1.081       .  S
C3846      C3847   1.395       .  A
C3847      C3848   1.403       .  A
C3848     Br3849   1.914       .  S
