geometry optimzed in LAMMPS
_audit_creation_date              2020-11-30 
_audit_creation_method            'lammps2cif' 
_symmetry_space_group_name_H-M    'P1' 
_symmetry_Int_Tables_number       1 
_symmetry_cell_setting            triclinic 
loop_ 
_symmetry_equiv_pos_as_xyz 
  x,y,z 
_cell_length_a                    34.58190375 
_cell_length_b                    34.39629487885429 
_cell_length_c                    34.72985243384244 
_cell_angle_alpha                 88.55570794880411 
_cell_angle_beta                  88.52624695488737 
_cell_angle_gamma                 91.63124703452135 
loop_ 
_atom_site_label 
_atom_site_type_symbol 
_atom_site_fract_x 
_atom_site_fract_y 
_atom_site_fract_z 
_atom_site_charge 
O1          O  0.53630977  0.05445709  0.85339255    -0.80400
O2          O  0.52937236  0.05952560  0.63359598    -0.82000
O3          O  0.61049862  0.05213246  0.73739369    -0.79000
O4          O  0.51961308  0.13607040  0.75083147    -0.77400
O5          O  0.45338023  0.13278474  0.75541903    -0.79200
O6          O  0.61178752  0.98558875  0.73682705    -0.80100
O7          O  0.55969994  0.09571472  0.67834050    -0.81400
O8          O  0.57007858  0.08766135  0.80549119    -0.81700
Eu9        Eu  0.54246641  0.06937238  0.74357641     2.39200
O10         O  0.48624944  0.06604289  0.70719437    -0.89200
O11         O  0.54421519  0.01340118  0.78371957    -0.92800
C12         C  0.56327696  0.07865751  0.84145109     1.01900
C13         C  0.55192806  0.08820391  0.64310729     1.01700
C14         C  0.62821822  0.01983648  0.73468498     1.01600
C15         C  0.48640345  0.15162214  0.75618037     0.99500
H16         H  0.56626854  0.01478596  0.68731663     0.29200
O17         O  0.54425434  0.01363497  0.70503324    -1.01600
H18         H  0.48761186  0.08720059  0.80217249     0.29300
O19         O  0.48768965  0.06522537  0.78550495    -1.04100
O20         O  0.44477882  0.96028165  0.64224356    -0.81400
O21         O  0.44150110  0.96508595  0.85933113    -0.80900
O22         O  0.56122658  0.92851598  0.68414065    -0.79300
O23         O  0.41202545  0.08887497  0.68627951    -0.82700
O24         O  0.40554518  0.07780337  0.81358852    -0.80500
O25         O  0.57419496  0.94066221  0.80776394    -0.79200
O26         O  0.45910766  0.88582567  0.76134303    -0.80700
O27         O  0.36576113  0.97018639  0.74313687    -0.82600
O28         O  0.52522055  0.88964276  0.75707264    -0.79400
O29         O  0.36386554  0.03679155  0.74228772    -0.82000
O30         O  0.52908881  0.96142795  0.63716305    -0.77800
O31         O  0.53772787  0.96695814  0.85573913    -0.77800
O32         O  0.44372402  0.05032885  0.85922151    -0.77500
O33         O  0.44185051  0.05425797  0.63889321    -0.81000
O34         O  0.41711558  0.92258986  0.69065075    -0.80400
O35         O  0.40557511  0.93515501  0.81423763    -0.78700
Eu36       Eu  0.48791768  0.01017424  0.66891619     2.39800
Eu37       Eu  0.48955726  0.00926400  0.82550840     2.39600
Eu38       Eu  0.54552782  0.95793718  0.74606727     2.38400
Eu39       Eu  0.43126754  0.06341254  0.74890712     2.39900
Eu40       Eu  0.43417014  0.95193994  0.75094343     2.39800
O41         O  0.43320563  0.00736560  0.78882292    -0.93100
O42         O  0.48930639  0.95496389  0.70988446    -0.92000
C43         C  0.42335888  0.93099572  0.65481439     1.02000
C44         C  0.41297622  0.94263453  0.84937007     1.00800
C45         C  0.55187430  0.93453857  0.64883538     1.00200
C46         C  0.41896246  0.08071752  0.65081987     1.02200
C47         C  0.41503811  0.07091066  0.84877011     1.01100
C48         C  0.56612504  0.94639397  0.84356995     0.99900
C49         C  0.49289645  0.87073229  0.76344405     1.00000
C50         C  0.34758936  0.00248648  0.74016085     1.02600
H51         H  0.49106445  0.93242474  0.80576287     0.30000
O52         O  0.49043346  0.95428408  0.78787152    -1.05300
H53         H  0.41092826  0.00655736  0.69419983     0.32000
O54         O  0.43316287  0.00780017  0.71039996    -1.07800
C55         C  0.69032504  0.20700444  0.48894505     0.86200
C56         C  0.66809211  0.18546932  0.52243857    -0.54000
C57         C  0.62939391  0.17904277  0.51679799     0.09100
C58         C  0.61609558  0.19717474  0.47822176     0.20100
C59         C  0.68045541  0.18442780  0.45250042    -0.54700
C60         C  0.64160991  0.17780571  0.44715541     0.09200
C61         C  0.66819899  0.24487566  0.48526761    -0.54300
C62         C  0.63028687  0.24045333  0.47727031     0.09800
H63         H  0.68134416  0.17673090  0.54905299     0.14300
H64         H  0.58454246  0.19426067  0.47456815     0.00100
H65         H  0.70288082  0.17570055  0.43269741     0.14600
H66         H  0.68134673  0.27352290  0.48894204     0.14400
O67         O  0.53400476  0.05608900  0.35251373    -0.80400
O68         O  0.53919136  0.04850783  0.13318877    -0.82000
O69         O  0.61439346  0.04089198  0.25207602    -0.79000
O70         O  0.52646372  0.12911536  0.23118729    -0.77400
O71         O  0.46019474  0.12803905  0.23267946    -0.79200
O72         O  0.61277420  0.97433440  0.25552893    -0.80100
O73         O  0.57598554  0.07931009  0.17774444    -0.81400
O74         O  0.56639519  0.08983870  0.30316687    -0.81700
Eu75       Eu  0.54760878  0.06220748  0.24177165     2.39200
O76         O  0.49198690  0.06156581  0.20383070    -0.89200
O77         O  0.54510479  0.00705035  0.28306700    -0.92800
C78         C  0.55815405  0.08283485  0.33913589     1.01900
C79         C  0.56790873  0.07087349  0.14281643     1.01700
C80         C  0.63053328  0.00786078  0.25780243     1.01600
C81         C  0.49350040  0.14546020  0.22816429     0.99500
H82         H  0.56975882  0.00560920  0.18898877     0.29200
O83         O  0.54645534  0.00588567  0.20485845    -1.01600
H84         H  0.49141084  0.08680041  0.29629244     0.29300
O85         O  0.49148524  0.06319047  0.28183034    -1.04100
O86         O  0.44435099  0.95800588  0.13884713    -0.81400
O87         O  0.44746753  0.95903432  0.35832332    -0.80900
O88         O  0.57010164  0.93147910  0.18207133    -0.79300
O89         O  0.41006677  0.07884158  0.18108167    -0.82700
O90         O  0.41378062  0.08838703  0.30499543    -0.80500
O91         O  0.56116154  0.92447062  0.30964327    -0.79200
O92         O  0.45391371  0.88262079  0.24318932    -0.80700
O93         O  0.36630140  0.97218122  0.25813697    -0.82600
O94         O  0.51971584  0.88284744  0.24084199    -0.79400
O95         O  0.36892608  0.03864383  0.25349698    -0.82000
O96         O  0.53456276  0.96109669  0.13624615    -0.77800
O97         O  0.53207015  0.96151809  0.35534846    -0.77800
O98         O  0.44205281  0.05287047  0.35217240    -0.77500
O99         O  0.44428728  0.04795928  0.13490531    -0.81000
O100        O  0.40819555  0.92863995  0.18828224    -0.80400
O101        O  0.41640912  0.92219419  0.31382982    -0.78700
Eu102      Eu  0.49026403  0.00521535  0.16720755     2.39800
Eu103      Eu  0.48947174  0.00799232  0.32360685     2.39600
Eu104      Eu  0.54501859  0.95064030  0.24593108     2.38400
Eu105      Eu  0.43613778  0.06120174  0.24399656     2.39900
Eu106      Eu  0.43336493  0.94996878  0.24949379     2.39800
O107        O  0.43404255  0.00650319  0.28610575    -0.93100
O108        O  0.48900968  0.95034339  0.20893077    -0.92000
C109        C  0.41697562  0.93467681  0.15233803     1.02000
C110        C  0.42488292  0.93055283  0.34869241     1.00800
C111        C  0.56144169  0.93833251  0.14652229     1.00200
C112        C  0.41755465  0.07111329  0.14552064     1.02200
C113        C  0.41909544  0.07979825  0.34073235     1.01100
C114        C  0.55379137  0.93345732  0.34484047     0.99900
C115        C  0.48619273  0.86511368  0.23979665     1.00000
C116        C  0.35044673  0.00578219  0.25845682     1.02600
H117        H  0.48884226  0.92835521  0.30220517     0.30000
O118        O  0.48925712  0.95159768  0.28605596    -1.05300
H119        H  0.41112286  0.00420657  0.19267718     0.32000
O120        O  0.43430353  0.00478163  0.20758689    -1.07800
C121        C  0.29044838  0.81062643  0.00359652     0.86200
C122        C  0.31342649  0.83232528  0.97139873    -0.54000
C123        C  0.31679616  0.87179395  0.97483675     0.09100
C124        C  0.29632839  0.88575046  0.01227870     0.20100
C125        C  0.31120818  0.82271504  0.04062342    -0.54700
C126        C  0.31472254  0.86203099  0.04501906     0.09200
C127        C  0.25168702  0.83027982  0.00768454    -0.54300
C128        C  0.25398210  0.86939618  0.01219611     0.09800
H129        H  0.32660700  0.81694891  0.94770646     0.14300
H130        H  0.29834066  0.91709578  0.01589652     0.00100
H131        H  0.32209486  0.80285094  0.06217934     0.14600
H132        H  0.22423201  0.81406906  0.00828194     0.14400
C133        C  0.68553423  0.81093607  0.99209213     0.86200
C134        C  0.65978397  0.82098613  0.02713128    -0.54000
C135        C  0.65221024  0.85967532  0.02988336     0.09100
C136        C  0.66960115  0.88478759  0.99612734     0.20100
C137        C  0.66458406  0.82736141  0.95673987    -0.54700
C138        C  0.65458250  0.86527329  0.95957324     0.09200
C139        C  0.72131724  0.83873640  0.99432219    -0.54300
C140        C  0.71312419  0.87712586  0.99706827     0.09800
H141        H  0.64781967  0.79887862  0.04707064     0.14300
H142        H  0.66315512  0.91611475  0.99785190     0.00100
H143        H  0.65846847  0.81150960  0.93117724     0.14600
H144        H  0.75086671  0.82891122  0.99504617     0.14400
C145        C  0.68792100  0.81907201  0.49703175     0.86200
C146        C  0.67380605  0.84652751  0.46423098    -0.54000
C147        C  0.63473708  0.85253763  0.46544065     0.09100
C148        C  0.61303797  0.82945166  0.49798532     0.20100
C149        C  0.67184648  0.83524071  0.53472344    -0.54700
C150        C  0.63323755  0.84269506  0.53512700     0.09200
C151        C  0.66346316  0.78189010  0.49157987    -0.54300
C152        C  0.62469646  0.78693150  0.49093936     0.09800
H153        H  0.69180065  0.85760150  0.44029068     0.14300
H154        H  0.58131183  0.83369653  0.49815629     0.00100
H155        H  0.69019293  0.84092369  0.55881629     0.14600
H156        H  0.67590688  0.75368824  0.48683039     0.14400
C157        C  0.29384324  0.20163193  0.99762521     0.86200
C158        C  0.31249197  0.18555880  0.03399537    -0.54000
C159        C  0.31863817  0.14654714  0.03407300     0.09100
C160        C  0.30597365  0.12695566  0.99687739     0.20100
C161        C  0.32052028  0.18930431  0.96396372    -0.54700
C162        C  0.32777889  0.15038662  0.96453202     0.09200
C163        C  0.25707311  0.17582969  0.99246960    -0.54300
C164        C  0.26344234  0.13695188  0.99158155     0.09800
H165        H  0.32338100  0.20459249  0.05580432     0.14300
H166        H  0.31110324  0.09521643  0.99647094     0.00100
H167        H  0.33127855  0.20884588  0.94096129     0.14600
H168        H  0.22849542  0.18724845  0.98821106     0.14400
C169        C  0.68515967  0.20786225  0.98997206     0.86200
C170        C  0.66481242  0.19312768  0.95395972    -0.54000
C171        C  0.66360454  0.15337994  0.95126505     0.09100
C172        C  0.68289628  0.13195245  0.98506399     0.20100
C173        C  0.66437325  0.18665940  0.02400969    -0.54700
C174        C  0.66190009  0.14741934  0.02128457     0.09200
C175        C  0.72485792  0.18939148  0.98609938    -0.54300
C176        C  0.72468963  0.14978423  0.98428763     0.09800
H177        H  0.65247618  0.21145790  0.93223262     0.14300
H178        H  0.68091847  0.09991267  0.98399137     0.00100
H179        H  0.65058880  0.20181702  0.04752873     0.14600
H180        H  0.75151310  0.20693966  0.98407901     0.14400
C181        C  0.28949991  0.19766981  0.49716799     0.86200
C182        C  0.30785066  0.17663505  0.46289337    -0.54000
C183        C  0.34718974  0.17072701  0.46463572     0.09100
C184        C  0.36386446  0.18774915  0.50205572     0.20100
C185        C  0.30067009  0.17377379  0.53308061    -0.54700
C186        C  0.33945555  0.16768356  0.53506783     0.09200
C187        C  0.31380973  0.23536669  0.50084225    -0.54300
C188        C  0.35228452  0.23042084  0.50278263     0.09800
H189        H  0.28994465  0.16591905  0.44005626     0.14300
H190        H  0.39499266  0.18590486  0.50600852     0.00100
H191        H  0.28036960  0.16411232  0.55578666     0.14600
H192        H  0.30170176  0.26407404  0.50291595     0.14400
C193        C  0.29152855  0.81386372  0.50412089     0.86200
C194        C  0.30844927  0.84147702  0.53460812    -0.54000
C195        C  0.34815918  0.84330629  0.53490451     0.09100
C196        C  0.36724562  0.81674959  0.50497459     0.20100
C197        C  0.31075569  0.82923622  0.46662800    -0.54700
C198        C  0.35008703  0.83046887  0.46613739     0.09200
C199        C  0.30951546  0.77529548  0.51416334    -0.54300
C200        C  0.34879220  0.77564803  0.51416771     0.09800
H201        H  0.29185788  0.85793572  0.55498445     0.14300
H202        H  0.39914938  0.81766981  0.50502659     0.00100
H203        H  0.29420336  0.84034393  0.44273949     0.14600
H204        H  0.29199613  0.74898371  0.52025849     0.14400
O205        O  0.86424351  0.76401844  0.53226383    -0.80400
O206        O  0.02289245  0.75210268  0.37813953    -0.82000
O207        O  0.91096535  0.81954493  0.41973048    -0.79000
O208        O  0.90781570  0.69154649  0.43015336    -0.77400
O209        O  0.94512855  0.64537249  0.45838824    -0.79200
O210        O  0.93739163  0.86846015  0.45511277    -0.80100
O211        O  0.95703865  0.74896581  0.37847565    -0.81400
O212        O  0.86539799  0.76474214  0.46637859    -0.81700
Eu213      Eu  0.93279089  0.75706160  0.44514622     2.39200
O214        O  0.98960242  0.72162679  0.44521422    -0.89200
O215        O  0.93109938  0.79520244  0.50028380    -0.92800
C216        C  0.84795944  0.76772674  0.49939667     1.01900
C217        C  0.99039226  0.74602328  0.36142333     1.01700
C218        C  0.91571497  0.85563384  0.42811575     1.01600
C219        C  0.91684389  0.65597023  0.43740794     0.99500
H220        H  0.98604577  0.81657923  0.42058999     0.29200
O221        O  0.98642959  0.80073850  0.44390475    -1.01600
H222        H  0.90970637  0.70000916  0.50104462     0.29300
O223        O  0.93261915  0.71669332  0.50071043    -1.04100
O224        O  0.10918838  0.77727345  0.46774068    -0.81400
O225        O  0.95179898  0.74513435  0.62227768    -0.80900
O226        O  0.02725480  0.87517697  0.45066169    -0.79300
O227        O  0.03732767  0.65397572  0.45300124    -0.82700
O228        O  0.94233314  0.64491981  0.54344591    -0.80500
O229        O  0.93748470  0.86504697  0.54752164    -0.79200
O230        O  0.05649505  0.82617336  0.58065025    -0.80700
O231        O  0.06854148  0.69916834  0.57402159    -0.82600
O232        O  0.02685002  0.87303431  0.54528598    -0.79400
O233        O  0.03672266  0.65016464  0.54313462    -0.82000
O234        O  0.06017699  0.82997172  0.41638478    -0.77800
O235        O  0.90864889  0.81593996  0.58420589    -0.77800
O236        O  0.90447996  0.68868242  0.57349343    -0.77500
O237        O  0.07163221  0.70450330  0.42315806    -0.81000
O238        O  0.10752908  0.77447483  0.53352872    -0.80400
O239        O  0.01786752  0.75049439  0.61993978    -0.78700
Eu240      Eu  0.04336490  0.76503823  0.44409593     2.39800
Eu241      Eu  0.93002449  0.75475442  0.55590494     2.39600
Eu242      Eu  0.98410891  0.83950659  0.49939967     2.38400
Eu243      Eu  0.98991801  0.68031824  0.50002100     2.39900
Eu244      Eu  0.04072727  0.76184623  0.55410542     2.39800
O245        O  0.98692068  0.71857253  0.55515470    -0.93100
O246        O  0.04073310  0.80324244  0.49918200    -0.92000
C247        C  0.12516610  0.78032600  0.50082660     1.02000
C248        C  0.98522113  0.74427966  0.63788393     1.00800
C249        C  0.05145655  0.86531742  0.42368206     1.00200
C250        C  0.06437277  0.66794872  0.42957122     1.02200
C251        C  0.91348776  0.65337561  0.56575661     1.01100
C252        C  0.91523379  0.85245193  0.57594536     0.99900
C253        C  0.04895827  0.86210777  0.57280793     1.00000
C254        C  0.06250025  0.66294166  0.56631197     1.02600
H255        H  0.98343559  0.81273867  0.57808020     0.30000
O256        O  0.98415564  0.79789117  0.55487104    -1.05300
H257        H  0.06800719  0.70980751  0.49892156     0.32000
O258        O  0.04418626  0.72378368  0.49910580    -1.07800
O259        O  0.86909910  0.25064880  0.54200520    -0.80400
O260        O  0.02491956  0.27355943  0.38143921    -0.82000
O261        O  0.91301640  0.32730194  0.43481159    -0.79000
O262        O  0.91519338  0.20217295  0.42460473    -0.77400
O263        O  0.94518447  0.15358771  0.45681713    -0.79200
O264        O  0.94867821  0.37417987  0.46384221    -0.80100
O265        O  0.95860903  0.27097226  0.38444294    -0.81400
O266        O  0.87108458  0.25650768  0.47626431    -0.81700
Eu267      Eu  0.93754472  0.26352436  0.45208847     2.39200
O268        O  0.99231204  0.22528519  0.44808216    -0.89200
O269        O  0.93750883  0.29970007  0.50844286    -0.92800
C270        C  0.85287399  0.25154739  0.50880848     1.01900
C271        C  0.99139217  0.27414901  0.36593171     1.01700
C272        C  0.92138851  0.36323137  0.44152012     1.01600
C273        C  0.92167699  0.16596265  0.43108815     0.99500
H274        H  0.99294078  0.32282151  0.42871839     0.29200
O275        O  0.99288823  0.30497033  0.45063243    -1.01600
H276        H  0.91384670  0.20318147  0.50619080     0.29300
O277        O  0.93634626  0.22047228  0.50598211    -1.04100
O278        O  0.11451612  0.25759623  0.46760662    -0.81400
O279        O  0.96138887  0.26320046  0.62891159    -0.80900
O280        O  0.04136306  0.37708659  0.46618552    -0.79300
O281        O  0.03545063  0.15456020  0.45383391    -0.82700
O282        O  0.95051770  0.14733746  0.55121118    -0.80500
O283        O  0.94529138  0.36826675  0.55224144    -0.79200
O284        O  0.07524529  0.32173997  0.57713676    -0.80700
O285        O  0.06612048  0.19366204  0.58061530    -0.82600
O286        O  0.03984825  0.37024272  0.55092372    -0.79400
O287        O  0.03642610  0.14845465  0.54377419    -0.82000
O288        O  0.07486771  0.33232506  0.43201029    -0.77800
O289        O  0.91076054  0.31859931  0.58331933    -0.77800
O290        O  0.92108459  0.19176501  0.58918692    -0.77500
O291        O  0.06820848  0.20437312  0.42126447    -0.81000
O292        O  0.11516398  0.25223377  0.53339349    -0.80400
O293        O  0.02760165  0.26352885  0.62599663    -0.78700
Eu294      Eu  0.04786446  0.26641492  0.44773775     2.39800
Eu295      Eu  0.93718316  0.25705512  0.56260359     2.39600
Eu296      Eu  0.99318713  0.34074967  0.50727958     2.38400
Eu297      Eu  0.99131983  0.18247299  0.50202786     2.39900
Eu298      Eu  0.04819340  0.25894293  0.55795926     2.39800
O299        O  0.99224513  0.21854323  0.55895898    -0.93100
O300        O  0.04857317  0.30222529  0.50438357    -0.92000
C301        C  0.13167985  0.25161217  0.49960606     1.02000
C302        C  0.99496146  0.26623528  0.64444115     1.00800
C303        C  0.06820260  0.36752055  0.44202881     1.00200
C304        C  0.06007797  0.16790918  0.42775285     1.02200
C305        C  0.92929511  0.15667494  0.58050670     1.01100
C306        C  0.91829443  0.35500222  0.57586613     0.99900
C307        C  0.06735596  0.35781730  0.57208274     1.00000
C308        C  0.05930360  0.15813633  0.57085926     1.02600
H309        H  0.99345521  0.31384452  0.58309020     0.30000
O310        O  0.99312197  0.29781027  0.56072950    -1.05300
H311        H  0.06840135  0.20638530  0.50011922     0.32000
O312        O  0.04658748  0.22321509  0.50137789    -1.07800
C313        C  0.78377692  0.50197696  0.69541302     0.86200
C314        C  0.80942890  0.46770796  0.68382803    -0.54000
C315        C  0.81417226  0.46365568  0.64506532     0.09100
C316        C  0.79401774  0.49457040  0.62091239     0.20100
C317        C  0.80496425  0.53686079  0.67523186    -0.54700
C318        C  0.80965948  0.53377786  0.63630077     0.09200
C319        C  0.74644150  0.49566340  0.67345237    -0.54300
C320        C  0.75095753  0.49082542  0.63455092     0.09800
H321        H  0.82410959  0.44916755  0.70418522     0.14300
H322        H  0.79992197  0.49108394  0.58990209     0.00100
H323        H  0.81805542  0.56071788  0.69035446     0.14600
H324        H  0.71836059  0.49412634  0.68826370     0.14400
C325        C  0.19300090  0.51244005  0.69497455     0.86200
C326        C  0.17069121  0.54925311  0.68239192    -0.54000
C327        C  0.15738171  0.54926637  0.64543266     0.09100
C328        C  0.16991968  0.51270459  0.62372223     0.20100
C329        C  0.16444676  0.47874807  0.68598343    -0.54700
C330        C  0.15332633  0.47858346  0.64855755     0.09200
C331        C  0.22570026  0.51100002  0.66489605    -0.54300
C332        C  0.21396254  0.51128450  0.62791294     0.09800
H333        H  0.16569951  0.57307799  0.70084182     0.14300
H334        H  0.16084817  0.51072811  0.59344862     0.00100
H335        H  0.15490569  0.45630533  0.70692052     0.14600
H336        H  0.25601138  0.50973664  0.67228424     0.14400
C337        C  0.79365547  0.01240557  0.30480680     0.86200
C338        C  0.80303783  0.97635263  0.33014272    -0.54000
C339        C  0.84115792  0.97386424  0.33847927     0.09100
C340        C  0.86707743  0.00654804  0.31988166     0.20100
C341        C  0.81122381  0.04673967  0.32718860    -0.54700
C342        C  0.85021941  0.04450488  0.33563824     0.09200
C343        C  0.82018208  0.00781371  0.26924301    -0.54300
C344        C  0.85832116  0.00582237  0.27685685     0.09800
H345        H  0.78239055  0.95357385  0.33954410     0.14300
H346        H  0.89777930  0.00170271  0.32367730     0.00100
H347        H  0.79269049  0.06953866  0.33697244     0.14600
H348        H  0.80968571  0.00479387  0.24029793     0.14400
C349        C  0.79272820  0.00770452  0.70197561     0.86200
C350        C  0.81524571  0.04068770  0.68040134    -0.54000
C351        C  0.85374872  0.03493543  0.67580312     0.09100
C352        C  0.86718663  0.99704414  0.69624617     0.20100
C353        C  0.80377482  0.97004850  0.68107949    -0.54700
C354        C  0.84293571  0.96438480  0.67797752     0.09200
C355        C  0.81260495  0.00304374  0.74078312    -0.54300
C356        C  0.85134805  0.99749512  0.73843473     0.09800
H357        H  0.80138889  0.06583081  0.66790453     0.14300
H358        H  0.89858822  0.99221662  0.69376625     0.00100
H359        H  0.78285035  0.95009765  0.66915552     0.14600
H360        H  0.79699274  0.00206069  0.76833899     0.14400
C361        C  0.79331510  0.50765712  0.30803545     0.86200
C362        C  0.81654420  0.54326906  0.32153517    -0.54000
C363        C  0.82295680  0.54286523  0.36015389     0.09100
C364        C  0.80424546  0.50774944  0.38244278     0.20100
C365        C  0.81739310  0.47330856  0.32383157    -0.54700
C366        C  0.82178419  0.47251642  0.36290068     0.09200
C367        C  0.75595181  0.50541739  0.33301366    -0.54300
C368        C  0.76165920  0.50680668  0.37155867     0.09800
H369        H  0.82703960  0.56662533  0.30208205     0.14300
H370        H  0.80809564  0.50850732  0.41406030     0.00100
H371        H  0.83267743  0.45266424  0.30680645     0.14600
H372        H  0.72721698  0.50475265  0.32105749     0.14400
C373        C  0.19400696  0.51837161  0.30313158     0.86200
C374        C  0.17892033  0.48098116  0.32367145    -0.54000
C375        C  0.16773626  0.48477277  0.36123929     0.09100
C376        C  0.17961765  0.52546712  0.37686405     0.20100
C377        C  0.16403458  0.54996461  0.31335341    -0.54700
C378        C  0.15639827  0.55312890  0.35191392     0.09200
C379        C  0.22908092  0.53124206  0.32556867    -0.54300
C380        C  0.22321209  0.53458215  0.36448065     0.09800
H381        H  0.17481610  0.45420593  0.30832510     0.14300
H382        H  0.17226476  0.52955152  0.40739200     0.00100
H383        H  0.15164937  0.56997067  0.29280335     0.14600
H384        H  0.25688714  0.53697206  0.31120646     0.14400
C385        C  0.18560712  0.01993425  0.29931320     0.86200
C386        C  0.17409345  0.04847536  0.33076590    -0.54000
C387        C  0.13500215  0.05084619  0.33697352     0.09100
C388        C  0.11058645  0.02477483  0.31104415     0.20100
C389        C  0.16435506  0.98098798  0.31027453    -0.54700
C390        C  0.12551323  0.98330994  0.31918396     0.09200
C391        C  0.16355543  0.03355442  0.26399220    -0.54300
C392        C  0.12469604  0.03625856  0.26932827     0.09800
H393        H  0.19498521  0.06629909  0.34575661     0.14300
H394        H  0.07922366  0.02835668  0.31619220     0.00100
H395        H  0.17935220  0.95386343  0.31257747     0.14600
H396        H  0.17631294  0.03544538  0.23508249     0.14400
C397        C  0.18263637  0.00286943  0.70043703     0.86200
C398        C  0.16356114  0.96712756  0.68214482    -0.54000
C399        C  0.12515626  0.97073295  0.67498917     0.09100
C400        C  0.10876735  0.00991553  0.68744932     0.20100
C401        C  0.17314363  0.03754904  0.67343893    -0.54700
C402        C  0.13459656  0.04161203  0.66643906     0.09200
C403        C  0.15710047  0.01022227  0.73676506    -0.54300
C404        C  0.11870251  0.01400144  0.72987441     0.09800
H405        H  0.17962702  0.94191789  0.67364083     0.14300
H406        H  0.07727274  0.01219264  0.68284538     0.00100
H407        H  0.19532448  0.05672202  0.66072886     0.14600
H408        H  0.16803677  0.01331949  0.76554236     0.14400
O409        O  0.74022562  0.63197537  0.96535476    -0.80400
O410        O  0.75422143  0.47585596  0.12565988    -0.82000
O411        O  0.68490115  0.58780947  0.08006091    -0.79000
O412        O  0.81165842  0.58842475  0.07755989    -0.77400
O413        O  0.85769446  0.55132574  0.04871330    -0.79200
O414        O  0.63702705  0.55854473  0.04553882    -0.80100
O415        O  0.75610560  0.54221743  0.12445861    -0.81400
O416        O  0.74092578  0.63229264  0.03113084    -0.81700
Eu417      Eu  0.74792285  0.56534820  0.05685146     2.39200
O418        O  0.78489858  0.50936615  0.05679076    -0.89200
O419        O  0.71033102  0.56398416  0.00157856    -0.92800
C420        C  0.73728284  0.64922661  0.99785563     1.01900
C421        C  0.75903556  0.50875510  0.14198869     1.01700
C422        C  0.64920600  0.58233152  0.07105392     1.01600
C423        C  0.84685628  0.57797107  0.07190867     0.99500
H424        H  0.69039956  0.51087962  0.08339555     0.29200
O425        O  0.70608368  0.51015646  0.06002704    -1.01600
H426        H  0.80422931  0.58892505  0.00081651     0.29300
O427        O  0.78799935  0.56561826  0.00090978    -1.04100
O428        O  0.73188616  0.38691928  0.03975892    -0.81400
O429        O  0.75662663  0.53993577  0.87914058    -0.80900
O430        O  0.63413560  0.46746431  0.05450839    -0.79300
O431        O  0.85482546  0.46124584  0.04470277    -0.82700
O432        O  0.85961110  0.55817189  0.95817951    -0.80500
O433        O  0.63917414  0.55410873  0.95679466    -0.79200
O434        O  0.68062660  0.43223162  0.92956345    -0.80700
O435        O  0.80809136  0.42708729  0.93021217    -0.82600
O436        O  0.63341134  0.46315850  0.96267282    -0.79400
O437        O  0.85646370  0.46214832  0.95863868    -0.82000
O438        O  0.67984588  0.43541042  0.08876847    -0.77800
O439        O  0.68720718  0.58395021  0.91964069    -0.77800
O440        O  0.81431964  0.59378544  0.92705423    -0.77500
O441        O  0.80628176  0.42761364  0.07776171    -0.81000
O442        O  0.73427023  0.38695537  0.97392812    -0.80400
O443        O  0.75106398  0.47405110  0.88323812    -0.78700
Eu444      Eu  0.74371819  0.45399573  0.06018171     2.39800
Eu445      Eu  0.74986965  0.56484082  0.94536655     2.39600
Eu446      Eu  0.66744272  0.50982544  0.00453351     2.38400
Eu447      Eu  0.82569031  0.50923993  0.00167376     2.39900
Eu448      Eu  0.74530667  0.45360917  0.95050348     2.39800
O449        O  0.78736602  0.50880297  0.94668719    -0.93100
O450        O  0.70501528  0.45413591  0.00580699    -0.92000
C451        C  0.72889415  0.37006146  0.00718682     1.02000
C452        C  0.75596795  0.50600098  0.86372832     1.00800
C453        C  0.64456502  0.44385994  0.08164334     1.00200
C454        C  0.84244300  0.43471894  0.06920849     1.02200
C455        C  0.84962822  0.58622540  0.93526443     1.01100
C456        C  0.65110611  0.57667451  0.92844757     0.99900
C457        C  0.64460540  0.43872183  0.93728297     1.00000
C458        C  0.84408913  0.43496523  0.93660885     1.02600
H459        H  0.69255891  0.50867684  0.92567113     0.30000
O460        O  0.70794846  0.50939313  0.94846496    -1.05300
H461        H  0.79846687  0.42975916  0.00479187     0.32000
O462        O  0.78400883  0.45335260  0.00466632    -1.07800
O463        O  0.25770377  0.62813924  0.96254448    -0.80400
O464        O  0.22886787  0.47248866  0.12147534    -0.82000
O465        O  0.18042404  0.58707287  0.06819370    -0.79000
O466        O  0.30624713  0.57683135  0.08089895    -0.77400
O467        O  0.35405503  0.54644402  0.04788579    -0.79200
O468        O  0.13376688  0.55169806  0.03842309    -0.80100
O469        O  0.23092984  0.53917306  0.11925074    -0.81400
O470        O  0.25389649  0.62713875  0.02849418    -0.81700
Eu471      Eu  0.24369670  0.55983268  0.05222733     2.39200
O472        O  0.28081648  0.50370730  0.05448119    -0.89200
O473        O  0.20773289  0.55993240  0.99603792    -0.92800
C474        C  0.25918289  0.64462323  0.99542923     1.01900
C475        C  0.22597221  0.50614028  0.13721425     1.01700
C476        C  0.14465096  0.57908033  0.06090141     1.01600
C477        C  0.34211324  0.56903816  0.07469537     0.99500
H478        H  0.18340417  0.50435053  0.07421301     0.29200
O479        O  0.20176859  0.50435633  0.05282392    -1.01600
H480        H  0.30454046  0.58219411  0.99824873     0.29300
O481        O  0.28664959  0.56020219  0.99832695    -1.04100
O482        O  0.24501589  0.38106682  0.03351802    -0.81400
O483        O  0.24517468  0.54065569  0.87553447    -0.80900
O484        O  0.12988416  0.45579114  0.03858285    -0.79300
O485        O  0.35039267  0.46006953  0.04777562    -0.82700
O486        O  0.35972356  0.54681526  0.95268541    -0.80500
O487        O  0.13759290  0.55171399  0.95326186    -0.79200
O488        O  0.18340647  0.42342196  0.92323320    -0.80700
O489        O  0.31031207  0.42993460  0.92017309    -0.82600
O490        O  0.13600860  0.45867664  0.95206140    -0.79400
O491        O  0.35633672  0.45865938  0.95733769    -0.82000
O492        O  0.17387911  0.42033439  0.07064151    -0.77800
O493        O  0.18773068  0.58753635  0.92423450    -0.77800
O494        O  0.31615860  0.57815927  0.91552673    -0.77500
O495        O  0.30112355  0.42800175  0.08104922    -0.81000
O496        O  0.24970843  0.38190443  0.96753136    -0.80400
O497        O  0.24132440  0.47460917  0.87464211    -0.78700
Eu498      Eu  0.23916181  0.44836771  0.05486619     2.39800
Eu499      Eu  0.25029371  0.56086558  0.94207742     2.39600
Eu500      Eu  0.16604047  0.50437917  0.99669681     2.38400
Eu501      Eu  0.32335449  0.50420410  0.00010110     2.39900
Eu502      Eu  0.24600965  0.44976619  0.94283646     2.39800
O503        O  0.28769071  0.50494992  0.94311016    -0.93100
O504        O  0.20407859  0.44882794  0.99768984    -0.92000
C505        C  0.24949319  0.36430813  0.00093316     1.02000
C506        C  0.24061693  0.50868838  0.85765316     1.00800
C507        C  0.13864626  0.42758559  0.06170310     1.00200
C508        C  0.33739298  0.43597984  0.07441189     1.02200
C509        C  0.35119268  0.56976219  0.92434195     1.01100
C510        C  0.15146497  0.57947095  0.93102198     0.99900
C511        C  0.14777889  0.43156414  0.92991775     1.00000
C512        C  0.34564058  0.43628629  0.93000037     1.02600
H513        H  0.19230170  0.50625508  0.91989172     0.30000
O514        O  0.20820470  0.50563536  0.94232359    -1.05300
H515        H  0.29750511  0.42715744  0.00097614     0.32000
O516        O  0.28136725  0.44957696  0.00007429    -1.07800
C517        C  0.00638227  0.70769002  0.80006836     0.86200
C518        C  0.04102828  0.68353164  0.81134466    -0.54000
C519        C  0.04360886  0.67537566  0.84998961     0.09100
C520        C  0.01118505  0.69469360  0.87421482     0.20100
C521        C  0.97063845  0.68602959  0.81898507    -0.54700
C522        C  0.97352939  0.67812508  0.85733175     0.09200
C523        C  0.00970322  0.74450754  0.82334856    -0.54300
C524        C  0.01389690  0.73846283  0.86176851     0.09800
H525        H  0.06193118  0.67533440  0.78980956     0.14300
H526        H  0.01143248  0.68958261  0.90581496     0.00100
H527        H  0.94469237  0.67766534  0.80400410     0.14600
H528        H  0.00749525  0.77351903  0.81075693     0.14400
C529        C  0.99296468  0.30605434  0.80815656     0.86200
C530        C  0.95705907  0.32789464  0.82149768    -0.54000
C531        C  0.95757110  0.33993522  0.85871583     0.09100
C532        C  0.99332821  0.32562659  0.88051613     0.20100
C533        C  0.02800788  0.33263666  0.81914940    -0.54700
C534        C  0.02758008  0.34312780  0.85669136     0.09200
C535        C  0.99607137  0.27151011  0.83650072    -0.54300
C536        C  0.99533346  0.28128575  0.87428156     0.09800
H537        H  0.93337923  0.33325310  0.80249687     0.14300
H538        H  0.99428863  0.33363974  0.91123876     0.00100
H539        H  0.05269023  0.34058500  0.80046120     0.14600
H540        H  0.99908767  0.24170716  0.82752713     0.14400
C541        C  0.50101651  0.70523904  0.80502206     0.86200
C542        C  0.46589850  0.68207950  0.82186097    -0.54000
C543        C  0.46961412  0.64279471  0.82287114     0.09100
C544        C  0.50925795  0.62960978  0.80698596     0.20100
C545        C  0.53422701  0.69133726  0.83083892    -0.54700
C546        C  0.53931813  0.65197109  0.83089146     0.09200
C547        C  0.51095488  0.68779098  0.76618957    -0.54300
C548        C  0.51450737  0.64837434  0.76627761     0.09800
H549        H  0.44196693  0.69567786  0.83646401     0.14300
H550        H  0.51159335  0.59763368  0.80804660     0.00100
H551        H  0.55208675  0.70952500  0.84852774     0.14600
H552        H  0.51408295  0.70568147  0.73996052     0.14400
C553        C  0.49229178  0.69946277  0.19892265     0.86200
C554        C  0.52951109  0.68885089  0.17637960    -0.54000
C555        C  0.53253905  0.65009070  0.16918642     0.09100
C556        C  0.49666585  0.62543561  0.18351482     0.20100
C557        C  0.45979565  0.68404912  0.17277307    -0.54700
C558        C  0.46202991  0.64534216  0.16453821     0.09200
C559        C  0.48942719  0.67227490  0.23429280    -0.54300
C560        C  0.49251756  0.63392655  0.22699126     0.09800
H561        H  0.55138918  0.71028939  0.16644564     0.14300
H562        H  0.49827596  0.59414503  0.17696857     0.00100
H563        H  0.43734513  0.70182310  0.16095428     0.14600
H564        H  0.48730635  0.68290422  0.26348066     0.14400
C565        C  0.98369844  0.30482077  0.20004759     0.86200
C566        C  0.02038704  0.32368631  0.18058194    -0.54000
C567        C  0.01881281  0.32878758  0.14133303     0.09100
C568        C  0.97980837  0.31375708  0.12515807     0.20100
C569        C  0.95019730  0.32977408  0.18690872    -0.54700
C570        C  0.94840982  0.33462653  0.14800825     0.09200
C571        C  0.97915505  0.26672251  0.17813094    -0.54300
C572        C  0.97538072  0.27100750  0.13938253     0.09800
H573        H  0.04521024  0.33292638  0.19668086     0.14300
H574        H  0.97684293  0.31819964  0.09381973     0.00100
H575        H  0.93022556  0.34331812  0.20677624     0.14600
H576        H  0.98009673  0.23792535  0.19141022     0.14400
C577        C  0.00092226  0.69948873  0.19854674     0.86200
C578        C  0.96564608  0.67552747  0.18301521    -0.54000
C579        C  0.96463047  0.67319521  0.14368827     0.09100
C580        C  0.99931586  0.69414705  0.12333487     0.20100
C581        C  0.03546674  0.67843283  0.18103086    -0.54700
C582        C  0.03515048  0.67625000  0.14179307     0.09200
C583        C  0.99990654  0.73844152  0.17648024    -0.54300
C584        C  0.99706649  0.73617308  0.13768366     0.09800
H585        H  0.94397401  0.65955874  0.20041085     0.14300
H586        H  0.00012661  0.69110890  0.09174955     0.00100
H587        H  0.05636125  0.66321930  0.19798307     0.14600
H588        H  0.99963642  0.76582262  0.19110417     0.14400
C589        C  0.49770435  0.31636174  0.79972881     0.86200
C590        C  0.53435879  0.32950767  0.82073259    -0.54000
C591        C  0.53510265  0.36766097  0.83140837     0.09100
C592        C  0.49829834  0.38931693  0.82008131     0.20100
C593        C  0.46402159  0.32684744  0.82762741    -0.54700
C594        C  0.46496893  0.36457824  0.83890061     0.09200
C595        C  0.49293422  0.34583608  0.76630794    -0.54300
C596        C  0.49360082  0.38392630  0.77647391     0.09800
H597        H  0.55624456  0.30920554  0.82895724     0.14300
H598        H  0.49800592  0.42013601  0.82874865     0.00100
H599        H  0.43984581  0.30733749  0.83566119     0.14600
H600        H  0.48675160  0.33729472  0.73721426     0.14400
C601        C  0.48657600  0.31305322  0.20075772     0.86200
C602        C  0.45755865  0.32773756  0.17081652    -0.54000
C603        C  0.45639113  0.36735028  0.16718680     0.09100
C604        C  0.48387755  0.38904821  0.19412353     0.20100
C605        C  0.52480443  0.33312365  0.18830645    -0.54700
C606        C  0.52420504  0.37254796  0.18325658     0.09200
C607        C  0.47293254  0.33240072  0.23729612    -0.54300
C608        C  0.47234945  0.37209543  0.23545442     0.09800
H609        H  0.43759253  0.30964973  0.15517763     0.14300
H610        H  0.48253445  0.42103667  0.19083237     0.00100
H611        H  0.55024718  0.31639185  0.18181956     0.14600
H612        H  0.46579622  0.31564441  0.26361468     0.14400
O613        O  0.55336626  0.41377787  0.45160107    -0.80400
O614        O  0.44792841  0.49558328  0.62573142    -0.82000
O615        O  0.57434353  0.44905897  0.56840435    -0.79000
O616        O  0.45875528  0.38751654  0.54069189    -0.77400
O617        O  0.41255916  0.40378275  0.49746712    -0.79200
O618        O  0.59601781  0.51245718  0.56141080    -0.80100
O619        O  0.48688473  0.44412119  0.61401744    -0.81400
O620        O  0.53998329  0.39301931  0.51369457    -0.81700
Eu621      Eu  0.50570049  0.44433076  0.54504787     2.39200
O622        O  0.44303543  0.46966728  0.54158837    -0.89200
O623        O  0.54782504  0.48402024  0.50563950    -0.92800
C624        C  0.55324010  0.38751428  0.47946152     1.01900
C625        C  0.46655545  0.46529149  0.63663052     1.01700
C626        C  0.60067247  0.47665894  0.57084478     1.01600
C627        C  0.42879585  0.37942379  0.52017300     0.99500
H628        H  0.51871433  0.50831375  0.59103846     0.29200
O629        O  0.50865818  0.50882352  0.56538496    -1.01600
H630        H  0.48286922  0.41841723  0.47105739     0.15700
O631        O  0.48461372  0.44443204  0.48074557    -1.04100
O632        O  0.41630515  0.59915955  0.55688417    -0.81400
O633        O  0.52486127  0.52132958  0.38113538    -0.80900
O634        O  0.54564718  0.57905813  0.59052061    -0.79300
O635        O  0.36259663  0.47698115  0.51360930    -0.82700
O636        O  0.43028505  0.44247048  0.41054347    -0.80500
O637        O  0.61102338  0.54225740  0.48704290    -0.79200
O638        O  0.51069115  0.63209891  0.46318985    -0.80700
O639        O  0.40084125  0.57239971  0.43206592    -0.82600
O640        O  0.55949527  0.61696664  0.50382169    -0.79400
O641        O  0.37773569  0.50979801  0.44096108    -0.82000
O642        O  0.48291386  0.56812803  0.61160190    -0.77800
O643        O  0.59665960  0.50017201  0.43909721    -0.77800
O644        O  0.49451231  0.44804139  0.39326130    -0.77500
O645        O  0.37769924  0.51419187  0.56522228    -0.81000
O646        O  0.42927120  0.62037855  0.49465856    -0.80400
O647        O  0.48575102  0.57287866  0.39251699    -0.78700
Eu648      Eu  0.44617098  0.53385571  0.56418647     2.39800
Eu649      Eu  0.52829865  0.48227780  0.44197726     2.39600
Eu650      Eu  0.55038501  0.54894101  0.52592143     2.38400
Eu651      Eu  0.42325110  0.47103828  0.47639079     2.39900
Eu652      Eu  0.46713347  0.57350387  0.46045305     2.39800
O653        O  0.46662026  0.50940253  0.43836075    -0.93100
O654        O  0.48802402  0.57409625  0.52465904    -0.92000
C655        C  0.41402925  0.62416457  0.52844658     1.02000
C656        C  0.50642857  0.55181000  0.37038534     1.00800
C657        C  0.51752301  0.58171387  0.61562559     1.00200
C658        C  0.35361069  0.49533464  0.54431142     1.02200
C659        C  0.45945916  0.43739083  0.38705696     1.01100
C660        C  0.62036599  0.52169484  0.45772864     0.99900
C661        C  0.54156375  0.64080836  0.48182443     1.00000
C662        C  0.37391984  0.54546154  0.42995414     1.02600
H663        H  0.54753926  0.56346661  0.44518587     0.30000
O664        O  0.52999262  0.54792483  0.46176538    -1.05300
H665        H  0.40087136  0.54520297  0.50068497     0.32000
O666        O  0.42617040  0.53419450  0.50041075    -1.07800
O667        O  0.07686009  0.93325881  0.05652423    -0.80400
O668        O  0.00422494  0.04290387  0.88212587    -0.82000
O669        O  0.03611563  0.91406963  0.93121637    -0.79000
O670        O  0.11001548  0.01905966  0.96617900    -0.77400
O671        O  0.09986305  0.06869590  0.00792556    -0.79200
O672        O  0.97290920  0.89702286  0.94317490    -0.80100
O673        O  0.05209173  0.99960297  0.89347346    -0.81400
O674        O  0.09257969  0.93839674  0.99225554    -0.81700
Eu675      Eu  0.04806165  0.97989850  0.96105311     2.39200
O676        O  0.02981579  0.04584981  0.96329073    -0.89200
O677        O  0.00662893  0.94111710  0.00129477    -0.92800
C678        C  0.10033715  0.92902439  0.02710320     1.01900
C679        C  0.03295663  0.02200583  0.87125006     1.01700
C680        C  0.00618652  0.89040189  0.92870073     1.01600
C681        C  0.12164779  0.04866271  0.98580352     0.99500
H682        H  0.98405072  0.97475786  0.91515996     0.29200
O683        O  0.98448044  0.98429895  0.94100425    -1.01600
H684        H  0.07672932  0.00146379  0.03408787     0.29300
O685        O  0.05086008  0.00212066  0.02458891    -1.04100
O686        O  0.90187701  0.08206744  0.95130721    -0.81400
O687        O  0.97245716  0.96681909  0.12586533    -0.80900
O688        O  0.91511792  0.95376023  0.91456870    -0.79300
O689        O  0.02864549  0.12864162  0.98978508    -0.82700
O690        O  0.06069996  0.05777661  0.09316271    -0.80500
O691        O  0.94864274  0.88293905  0.01865802    -0.79200
O692        O  0.86375055  0.99256097  0.04139233    -0.80700
O693        O  0.93410711  0.09543649  0.07460396    -0.82600
O694        O  0.87488291  0.94285709  0.00020080    -0.79400
O695        O  0.99819708  0.11287575  0.06640883    -0.82000
O696        O  0.92393657  0.01815899  0.89794217    -0.77800
O697        O  0.99080552  0.89496121  0.06712391    -0.77800
O698        O  0.04620210  0.99513634  0.11246386    -0.77500
O699        O  0.98747525  0.11717141  0.94040760    -0.81000
O700        O  0.88143593  0.07184801  0.01412199    -0.80400
O701        O  0.92475703  0.01031847  0.11459523    -0.78700
Eu702      Eu  0.96521179  0.04919604  0.94301999     2.39800
Eu703      Eu  0.01059973  0.96223321  0.06454366     2.39600
Eu704      Eu  0.94268810  0.94499029  0.98056231     2.38400
Eu705      Eu  0.03167553  0.06652868  0.02795684     2.39900
Eu706      Eu  0.92602870  0.03003815  0.04658573     2.39800
O707        O  0.99006818  0.02657372  0.06704614    -0.93100
O708        O  0.92344076  0.00959527  0.98271396    -0.92000
C709        C  0.87762160  0.08619590  0.97996860     1.02000
C710        C  0.94380620  0.98768016  0.13682147     1.00800
C711        C  0.91267444  0.98328495  0.89075716     1.00200
C712        C  0.00928096  0.13967746  0.96020872     1.02200
C713        C  0.06157362  0.02872137  0.11774064     1.01100
C714        C  0.96874811  0.87248180  0.04796008     0.99900
C715        C  0.85269447  0.96290422  0.02177073     1.00000
C716        C  0.96323111  0.11962928  0.07709060     1.02600
H717        H  0.92867080  0.94826189  0.06162955     0.30000
O718        O  0.94538797  0.96474534  0.04508422    -1.05300
H719        H  0.95886375  0.09538252  0.00632786     0.32000
O720        O  0.96778892  0.06908283  0.00647948    -1.07800
C721        C  0.48895877  0.37836638  0.30363479    -0.06100
C722        C  0.46716033  0.39288377  0.27304857    -0.00100
C723        C  0.43776216  0.41980890  0.28196514    -0.08700
C724        C  0.43368585  0.43278434  0.32043400    -0.06100
C725        C  0.45508243  0.41666623  0.35049185    -0.00100
C726        C  0.48112208  0.38700972  0.34202679    -0.08600
C727        C  0.50202331  0.36418762  0.37282893     0.61800
H728        H  0.51114508  0.35768376  0.29787134     0.12500
H729        H  0.41415013  0.45583882  0.32724197     0.12500
C730        C  0.40957519  0.43330707  0.25220187     0.62000
F731        F  0.50116378  0.32506965  0.36436972    -0.23200
F732        F  0.48495494  0.36746948  0.40902208    -0.20500
F733        F  0.54014330  0.37729095  0.37368412    -0.20200
F734        F  0.38936893  0.40141662  0.23899332    -0.20200
F735        F  0.42905036  0.45249600  0.22184467    -0.20500
F736        F  0.38293119  0.45841403  0.26746891    -0.23200
C737        C  0.50249618  0.46148936  0.69692730    -0.06100
C738        C  0.46754347  0.45467254  0.67824184    -0.00100
C739        C  0.43771053  0.43237187  0.69747530    -0.08700
C740        C  0.44626301  0.41188640  0.73174528    -0.06100
C741        C  0.48303952  0.41489381  0.74803459    -0.00100
C742        C  0.51040525  0.44268937  0.73227682    -0.08600
C743        C  0.54836053  0.45110739  0.75158276     0.61800
H744        H  0.52439589  0.48016206  0.68250337     0.12500
H745        H  0.42493814  0.39175195  0.74503277     0.12500
C746        C  0.39764832  0.42957195  0.68115412     0.62000
F747        F  0.56931288  0.41770380  0.75364005    -0.23200
F748        F  0.54126567  0.46424821  0.78830345    -0.20500
F749        F  0.57062485  0.47934924  0.73155396    -0.20200
F750        F  0.39963326  0.41379358  0.64516772    -0.20200
F751        F  0.38276143  0.46636596  0.67797237    -0.20500
F752        F  0.37252659  0.40659958  0.70428542    -0.23200
C753        C  0.00294118  0.77416598  0.07611320    -0.06100
C754        C  0.98550991  0.76985952  0.11306517    -0.00100
C755        C  0.95607082  0.79619859  0.12422104    -0.08700
C756        C  0.94813659  0.82724578  0.09905979    -0.06100
C757        C  0.96690752  0.83239808  0.06323117    -0.00100
C758        C  0.99361145  0.80480479  0.05070332    -0.08600
C759        C  0.01182821  0.80797016  0.01057854     0.61800
H760        H  0.02437266  0.75356976  0.06738928     0.12500
H761        H  0.92875319  0.84959029  0.10843944     0.12500
C762        C  0.93287716  0.79405777  0.16229999     0.62000
F763        F  0.03620449  0.77760404  0.00330264    -0.23200
F764        F  0.03302645  0.84252485  0.00578161    -0.20500
F765        F  0.98273646  0.80695120  0.98406668    -0.20200
F766        F  0.95293110  0.81383213  0.19002265    -0.20200
F767        F  0.92488178  0.75622077  0.17492843    -0.20500
F768        F  0.89748122  0.81141400  0.15840187    -0.23200
C769        C  0.93807861  0.20903989  0.13347176    -0.06100
C770        C  0.96527163  0.23627096  0.11637159    -0.00100
C771        C  0.98625640  0.22598936  0.08277372    -0.08700
C772        C  0.97987395  0.18871354  0.06858745    -0.06100
C773        C  0.95751617  0.15996022  0.08913465    -0.00100
C774        C  0.93554907  0.17022415  0.12182522    -0.08600
C775        C  0.91382791  0.13972167  0.14687520     0.61800
H776        H  0.92152922  0.21744046  0.15867111     0.12500
H777        H  0.99501623  0.18064173  0.04243153     0.12500
C778        C  0.01766157  0.25196755  0.06337309     0.62000
F779        F  0.89823128  0.15519925  0.18005534    -0.23200
F780        F  0.93925420  0.11148303  0.15746049    -0.20500
F781        F  0.88404942  0.12264174  0.12704255    -0.20200
F782        F  0.04255784  0.26606800  0.09043258    -0.20200
F783        F  0.00119732  0.28238796  0.04369277    -0.20500
F784        F  0.03979789  0.23197182  0.03707543    -0.23200
C785        C  0.47609248  0.55700336  0.30719857    -0.06100
C786        C  0.50843410  0.56474414  0.32976466    -0.00100
C787        C  0.53697181  0.59233682  0.31674298    -0.08700
C788        C  0.53114809  0.61308281  0.28224332    -0.06100
C789        C  0.49859652  0.60610790  0.25966246    -0.00100
C790        C  0.47046879  0.57765325  0.27228078    -0.08600
C791        C  0.43303910  0.57222696  0.25115070     0.61800
H792        H  0.45397258  0.53658137  0.31854671     0.12500
H793        H  0.55091965  0.63679056  0.27391682     0.12500
C794        C  0.57238083  0.60106815  0.34038737     0.62000
F795        F  0.40863144  0.54433452  0.26902205    -0.23200
F796        F  0.44082461  0.56074064  0.21399035    -0.20500
F797        F  0.41398384  0.60701397  0.25019565    -0.20200
F798        F  0.59213296  0.56717392  0.34667046    -0.20200
F799        F  0.56122543  0.61587042  0.37549494    -0.20500
F800        F  0.59751300  0.62791775  0.32187858    -0.23200
C801        C  0.54801943  0.58836225  0.67951161    -0.06100
C802        C  0.52290361  0.60273138  0.65162360    -0.00100
C803        C  0.49602585  0.63099759  0.66216956    -0.08700
C804        C  0.49322834  0.64194047  0.70026852    -0.06100
C805        C  0.51785701  0.62829472  0.72860729    -0.00100
C806        C  0.54625818  0.60097146  0.71814715    -0.08600
C807        C  0.57372574  0.58416934  0.74708448     0.61800
H808        H  0.56752238  0.56570948  0.67135138     0.12500
H809        H  0.47134591  0.66245203  0.70775777     0.12500
C810        C  0.46924579  0.65121331  0.63477439     0.62000
F811        F  0.55362401  0.55871247  0.77220677    -0.23200
F812        F  0.59103214  0.61354591  0.76746632    -0.20500
F813        F  0.60284559  0.56383913  0.72922119    -0.20200
F814        F  0.43123922  0.64374952  0.64675138    -0.20200
F815        F  0.47351374  0.63988053  0.59724610    -0.20500
F816        F  0.47697876  0.69083223  0.63549729    -0.23200
C817        C  0.03652707  0.23631811  0.91062975    -0.06100
C818        C  0.99936325  0.25096245  0.90501351    -0.00100
C819        C  0.96689800  0.23182457  0.92368137    -0.08700
C820        C  0.97277900  0.19801694  0.94594590    -0.06100
C821        C  0.00918339  0.18129170  0.94824928    -0.00100
C822        C  0.04200704  0.20153461  0.93206048    -0.08600
C823        C  0.08205309  0.18522320  0.93570031     0.61800
H824        H  0.06097385  0.25076262  0.89572369     0.12500
H825        H  0.94786249  0.18241407  0.95898406     0.12500
C826        C  0.92515756  0.24351675  0.91948624     0.62000
F827        F  0.08335895  0.14934466  0.91865629    -0.23200
F828        F  0.09057344  0.18093099  0.97424166    -0.20500
F829        F  0.11025898  0.20948722  0.91817580    -0.20200
F830        F  0.92052334  0.27296522  0.89263070    -0.20200
F831        F  0.91093092  0.25538202  0.95473024    -0.20500
F832        F  0.90311787  0.21182016  0.90815885    -0.23200
C833        C  0.04463175  0.83341660  0.90826090    -0.06100
C834        C  0.00884514  0.85155742  0.91028536    -0.00100
C835        C  0.97507968  0.83008992  0.89877850    -0.08700
C836        C  0.97819564  0.79084490  0.88959057    -0.06100
C837        C  0.01382913  0.77306985  0.88665819    -0.00100
C838        C  0.04794524  0.79493891  0.89533656    -0.08600
C839        C  0.08772202  0.77782677  0.89196568     0.61800
H840        H  0.07005524  0.84947736  0.91729509     0.12500
H841        H  0.95274747  0.77426426  0.88128281     0.12500
C842        C  0.93597171  0.84841867  0.89315142     0.62000
F843        F  0.11686091  0.80560407  0.89679578    -0.23200
F844        F  0.09342438  0.76201144  0.85620578    -0.20500
F845        F  0.09105776  0.74937469  0.92019182    -0.20200
F846        F  0.94128888  0.88392353  0.87385534    -0.20200
F847        F  0.91721295  0.85315219  0.92831779    -0.20500
F848        F  0.91181610  0.82559300  0.87121451    -0.23200
C849        C  0.09218086  0.42767354  0.88724239    -0.06100
C850        C  0.11809482  0.40816685  0.91060792    -0.00100
C851        C  0.11405433  0.36734909  0.91652889    -0.08700
C852        C  0.08484012  0.34705495  0.89731541    -0.06100
C853        C  0.05904315  0.36650471  0.87376414    -0.00100
C854        C  0.06219372  0.40750054  0.86903487    -0.08600
C855        C  0.03289642  0.42997036  0.84659605     0.61800
H856        H  0.09533978  0.45901516  0.88388982     0.12500
H857        H  0.08129348  0.31588084  0.90127566     0.12500
C858        C  0.13836317  0.34597256  0.94540704     0.62000
F859        F  0.04057261  0.46969925  0.84656216    -0.23200
F860        F  0.99668043  0.42303033  0.86340608    -0.20500
F861        F  0.03313527  0.41833277  0.80879490    -0.20200
F862        F  0.13465059  0.36355564  0.98062816    -0.20200
F863        F  0.17678773  0.34724324  0.93336684    -0.20500
F864        F  0.12667967  0.30726784  0.95024163    -0.23200
C865        C  0.04001135  0.37583724  0.08831372    -0.06100
C866        C  0.05055109  0.34958767  0.11758736    -0.00100
C867        C  0.09056365  0.34634122  0.12507340    -0.08700
C868        C  0.11727154  0.37343002  0.10758287    -0.06100
C869        C  0.10676080  0.40124998  0.07947405    -0.00100
C870        C  0.06714563  0.40118858  0.06850920    -0.08600
C871        C  0.05276656  0.42703864  0.03601272     0.61800
H872        H  0.00986865  0.37692914  0.08129234     0.12500
H873        H  0.14729850  0.37174365  0.11545432     0.12500
C874        C  0.10720378  0.31386965  0.14952162     0.62000
F875        F  0.01396245  0.42005148  0.02908552    -0.23200
F876        F  0.07327883  0.42017902  0.00228827    -0.20500
F877        F  0.05710478  0.46565836  0.04529142    -0.20200
F878        F  0.08190045  0.28226861  0.15487741    -0.20200
F879        F  0.11711652  0.32802762  0.18495315    -0.20500
F880        F  0.14020475  0.30040605  0.13149620    -0.23200
C881        C  0.05067447  0.61580838  0.10797442    -0.06100
C882        C  0.06312905  0.65256774  0.11989985    -0.00100
C883        C  0.10143332  0.66580093  0.11109979    -0.08700
C884        C  0.12645283  0.64125974  0.09107166    -0.06100
C885        C  0.11466349  0.60369785  0.07979774    -0.00100
C886        C  0.07567635  0.59085377  0.08825607    -0.08600
C887        C  0.06023237  0.55091443  0.07755699     0.61800
H888        H  0.02101988  0.60661228  0.11481946     0.12500
H889        H  0.15585367  0.65134558  0.08440224     0.12500
C890        C  0.11581638  0.70565443  0.12309000     0.62000
F891        F  0.02308287  0.54329596  0.09217280    -0.23200
F892        F  0.08362421  0.52255997  0.09229276    -0.20500
F893        F  0.05918676  0.54854896  0.03790705    -0.20200
F894        F  0.11713231  0.70641780  0.16274233    -0.20200
F895        F  0.09117067  0.73383775  0.11014411    -0.20500
F896        F  0.15257201  0.71480195  0.10823633    -0.23200
C897        C  0.11437072  0.59371288  0.87365303    -0.06100
C898        C  0.12372427  0.60351495  0.91101217    -0.00100
C899        C  0.10786104  0.63636730  0.92785009    -0.08700
C900        C  0.08325837  0.65911437  0.90598680    -0.06100
C901        C  0.07368770  0.65036033  0.86793494    -0.00100
C902        C  0.09032571  0.61675271  0.85098954    -0.08600
C903        C  0.08572461  0.60493496  0.80931174     0.61800
H904        H  0.12705169  0.56790812  0.86209605     0.12500
H905        H  0.07110135  0.68398745  0.91921190     0.12500
C906        C  0.11587550  0.64654387  0.96921307     0.62000
F907        F  0.10815979  0.62987100  0.78563392    -0.23200
F908        F  0.04754721  0.60530141  0.79873308    -0.20500
F909        F  0.09835036  0.56766076  0.80315881    -0.20200
F910        F  0.15526976  0.65145152  0.97401151    -0.20200
F911        F  0.10165408  0.61673458  0.99340223    -0.20500
F912        F  0.09830175  0.68046677  0.97988240    -0.23200
C913        C  0.39798819  0.38849151  0.92377679    -0.06100
C914        C  0.37624528  0.41794660  0.90688399    -0.00100
C915        C  0.38415921  0.43003947  0.86817532    -0.08700
C916        C  0.41362422  0.41195325  0.84731954    -0.06100
C917        C  0.43444563  0.38155190  0.86353920    -0.00100
C918        C  0.42684102  0.36946918  0.90247345    -0.08600
C919        C  0.44848763  0.33649129  0.92140495     0.61800
H920        H  0.39139958  0.37977944  0.95347020     0.12500
H921        H  0.42006843  0.42085302  0.81765729     0.12500
C922        C  0.36139356  0.46193310  0.84899288     0.62000
F923        F  0.44202550  0.33480227  0.96090692    -0.23200
F924        F  0.48788093  0.34127516  0.91465573    -0.20500
F925        F  0.43625615  0.30139727  0.90676299    -0.20200
F926        F  0.36114022  0.49436198  0.87170573    -0.20200
F927        F  0.32375751  0.44874424  0.84402680    -0.20500
F928        F  0.37717814  0.47310950  0.81324698    -0.23200
C929        C  0.37960366  0.58512016  0.85876587    -0.06100
C930        C  0.38370926  0.58626926  0.89900848    -0.00100
C931        C  0.41867826  0.60231122  0.91354521    -0.08700
C932        C  0.44685693  0.61866619  0.88736920    -0.06100
C933        C  0.44211860  0.61831123  0.84744862    -0.00100
C934        C  0.40872919  0.60006176  0.83271877    -0.08600
C935        C  0.40412404  0.59651829  0.78966590     0.61800
H936        H  0.35333641  0.57214647  0.84777667     0.12500
H937        H  0.47273322  0.63285937  0.89788390     0.12500
C938        C  0.42608501  0.60356896  0.95638554     0.62000
F939        F  0.37204041  0.57357945  0.78124118    -0.23200
F940        F  0.43646868  0.57965204  0.77375210    -0.20500
F941        F  0.40008078  0.63296481  0.77285533    -0.20200
F942        F  0.39591132  0.62132050  0.97507766    -0.20200
F943        F  0.45986330  0.62426984  0.96392166    -0.20500
F944        F  0.42958707  0.56621980  0.97123547    -0.23200
C945        C  0.39530499  0.61755217  0.15789102    -0.06100
C946        C  0.43223838  0.62466883  0.14115742    -0.00100
C947        C  0.43914554  0.61358038  0.10258936    -0.08700
C948        C  0.40900087  0.59563440  0.08234064    -0.06100
C949        C  0.37205446  0.58803893  0.09911178    -0.00100
C950        C  0.36526657  0.59857806  0.13811166    -0.08600
C951        C  0.32714519  0.58915213  0.15957894     0.61800
H952        H  0.39006527  0.62726799  0.18685082     0.12500
H953        H  0.41410695  0.58766106  0.05273056     0.12500
C954        C  0.47789212  0.62133380  0.08242047     0.62000
F955        F  0.31713091  0.55020471  0.15594822    -0.23200
F956        F  0.29834814  0.61187167  0.14496121    -0.20500
F957        F  0.32942500  0.59626397  0.19854126    -0.20200
F958        F  0.50532407  0.59945807  0.10033574    -0.20200
F959        F  0.48758585  0.66050499  0.08388610    -0.20500
F960        F  0.47769014  0.61131900  0.04406887    -0.23200
C961        C  0.40588398  0.42016374  0.08586471    -0.06100
C962        C  0.36685252  0.41688148  0.09877925    -0.00100
C963        C  0.35807081  0.39737561  0.13479494    -0.08700
C964        C  0.38842682  0.38114463  0.15529325    -0.06100
C965        C  0.42711760  0.38625792  0.14317215    -0.00100
C966        C  0.43625171  0.40594476  0.10777100    -0.08600
C967        C  0.47765509  0.41196603  0.09296919     0.61800
H968        H  0.41282706  0.43476322  0.05850161     0.12500
H969        H  0.38218601  0.36396346  0.18133633     0.12500
C970        C  0.31748762  0.39400501  0.15262569     0.62000
F971        F  0.47972193  0.42736739  0.05570070    -0.23200
F972        F  0.49602486  0.37683948  0.09292116    -0.20500
F973        F  0.49681535  0.43757060  0.11637239    -0.20200
F974        F  0.29427476  0.37050950  0.13053306    -0.20200
F975        F  0.30213167  0.43052531  0.15508684    -0.20500
F976        F  0.31719413  0.37792892  0.18960074    -0.23200
C977        C  0.59711213  0.44784965  0.13600637    -0.06100
C978        C  0.61387922  0.42562890  0.10700817    -0.00100
C979        C  0.60209374  0.38637308  0.10354868    -0.08700
C980        C  0.57213281  0.37129342  0.12808865    -0.06100
C981        C  0.55581753  0.39272009  0.15860830    -0.00100
C982        C  0.56979030  0.43160116  0.16322990    -0.08600
C983        C  0.55858946  0.45701866  0.19651467     0.61800
H984        H  0.60703387  0.47785173  0.13862580     0.12500
H985        H  0.56116985  0.34218028  0.12307844     0.12500
C986        C  0.62146661  0.36039029  0.07437987     0.62000
F987        F  0.59160886  0.47405581  0.21122646    -0.23200
F988        F  0.53990749  0.43658853  0.22655133    -0.20500
F989        F  0.53509105  0.48608101  0.18328314    -0.20200
F990        F  0.65989461  0.35639543  0.08328757    -0.20200
F991        F  0.61950048  0.37661673  0.03775466    -0.20500
F992        F  0.60425507  0.32354216  0.07419613    -0.23200
C993        C  0.61557783  0.58816141  0.13293028    -0.06100
C994        C  0.62009223  0.60179885  0.09488452    -0.00100
C995        C  0.59830327  0.63348668  0.08184626    -0.08700
C996        C  0.57185304  0.65005821  0.10788253    -0.06100
C997        C  0.56515884  0.63448437  0.14545686    -0.00100
C998        C  0.58882429  0.60406099  0.15866701    -0.08600
C999        C  0.58855185  0.59026874  0.20030369     0.61800
H1000       H  0.63338755  0.56447092  0.14231606     0.12500
H1001       H  0.55534398  0.67468660  0.09869368     0.12500
C1002       C  0.60330769  0.64985560  0.04102168     0.62000
F1003       F  0.61828214  0.56524514  0.20780125    -0.23200
F1004       F  0.55421919  0.57062328  0.20977114    -0.20500
F1005       F  0.59357263  0.62212024  0.22315166    -0.20200
F1006       F  0.59549774  0.62108802  0.01498595    -0.20200
F1007       F  0.64092527  0.66371338  0.03504052    -0.20500
F1008       F  0.57864923  0.68012619  0.03399008    -0.23200
C1009       C  0.63302967  0.62892744  0.88196000    -0.06100
C1010       C  0.62160083  0.59532158  0.90372145    -0.00100
C1011       C  0.58362175  0.57926320  0.89887396    -0.08700
C1012       C  0.55801233  0.59917195  0.87520511    -0.06100
C1013       C  0.56957016  0.63251693  0.85357365    -0.00100
C1014       C  0.60863879  0.64634829  0.85517749    -0.08600
C1015       C  0.62726510  0.67727483  0.82806652     0.61800
H1016       H  0.66218939  0.64086572  0.88445381     0.12500
H1017       H  0.52834678  0.58862526  0.87347524     0.12500
C1018       C  0.57011946  0.54051586  0.91686846     0.62000
F1019       F  0.66220281  0.66418580  0.81382716    -0.23200
F1020       F  0.63430344  0.71083036  0.84806501    -0.20500
F1021       F  0.60511282  0.68598913  0.79667797    -0.20200
F1022       F  0.56641219  0.54372590  0.95638689    -0.20200
F1023       F  0.59656685  0.51258784  0.90761775    -0.20500
F1024       F  0.53457512  0.52807313  0.90349439    -0.23200
C1025       C  0.62927218  0.39889854  0.88032015    -0.06100
C1026       C  0.61514377  0.41804406  0.91304531    -0.00100
C1027       C  0.57429139  0.41729446  0.92002235    -0.08700
C1028       C  0.54991740  0.40278687  0.89130776    -0.06100
C1029       C  0.56423522  0.38444243  0.85832506    -0.00100
C1030       C  0.60494742  0.38157897  0.85330404    -0.08600
C1031       C  0.62404028  0.35961551  0.82084486     0.61800
H1032       H  0.66019492  0.39705853  0.87575556     0.12500
H1033       H  0.51891247  0.40455606  0.89524422     0.12500
C1034       C  0.55588998  0.42807351  0.95843529     0.62000
F1035       F  0.62652647  0.32090923  0.83192030    -0.23200
F1036       F  0.66109583  0.37424502  0.81244738    -0.20500
F1037       F  0.60372609  0.36240284  0.78737082    -0.20200
F1038       F  0.55898514  0.46752230  0.96370264    -0.20200
F1039       F  0.57388719  0.40888657  0.98804714    -0.20500
F1040       F  0.51692356  0.41747960  0.96096579    -0.23200
C1041       C  0.85731569  0.37392506  0.10491647    -0.06100
C1042       C  0.87108957  0.41000331  0.08900561    -0.00100
C1043       C  0.91079878  0.42111004  0.09340616    -0.08700
C1044       C  0.93425699  0.39616583  0.11463192    -0.06100
C1045       C  0.92043701  0.36007293  0.12929851    -0.00100
C1046       C  0.88150787  0.34841475  0.12439421    -0.08600
C1047       C  0.86598038  0.30871243  0.13849486     0.61800
H1048       H  0.82737125  0.36519060  0.10121802     0.12500
H1049       H  0.96408377  0.40439161  0.11962507     0.12500
C1050       C  0.92931314  0.45824030  0.07556982     0.62000
F1051       F  0.82715887  0.30321647  0.13087851    -0.23200
F1052       F  0.87010206  0.30458971  0.17784203    -0.20500
F1053       F  0.88619421  0.28012834  0.12017927    -0.20200
F1054       F  0.90841344  0.49003605  0.08578106    -0.20200
F1055       F  0.93069308  0.45584758  0.03590347    -0.20500
F1056       F  0.96680185  0.46457502  0.08758082    -0.23200
C1057       C  0.91743476  0.35726909  0.91577938    -0.06100
C1058       C  0.92748990  0.36517979  0.87675730    -0.00100
C1059       C  0.90981278  0.39731688  0.85760615    -0.08700
C1060       C  0.88272935  0.41911570  0.87843005    -0.06100
C1061       C  0.87321296  0.41086708  0.91718872    -0.00100
C1062       C  0.89021187  0.37906492  0.93608731    -0.08600
C1063       C  0.87901432  0.36781000  0.97743628     0.61800
H1064       H  0.93073447  0.33330329  0.93055219     0.12500
H1065       H  0.86838030  0.44297643  0.86433467     0.12500
C1066       C  0.91733244  0.40945447  0.81548581     0.62000
F1067       F  0.89582034  0.33365989  0.98942626    -0.23200
F1068       F  0.83931020  0.36246836  0.98104791    -0.20500
F1069       F  0.89085949  0.39702866  0.00130496    -0.20200
F1070       F  0.89275315  0.38824516  0.79266682    -0.20200
F1071       F  0.95515952  0.40427424  0.80365264    -0.20500
F1072       F  0.91026461  0.44853771  0.80937470    -0.23200
C1073       C  0.91706728  0.67222744  0.90336273    -0.06100
C1074       C  0.94353424  0.65370854  0.87923294    -0.00100
C1075       C  0.93919774  0.61291084  0.87418857    -0.08700
C1076       C  0.90844886  0.59220481  0.89347621    -0.06100
C1077       C  0.88125099  0.61081396  0.91652546    -0.00100
C1078       C  0.88554658  0.65154282  0.92178232    -0.08600
C1079       C  0.85707744  0.67306710  0.94671418     0.61800
H1080       H  0.92058878  0.70335456  0.90662864     0.12500
H1081       H  0.90490538  0.56108073  0.89019135     0.12500
C1082       C  0.96730931  0.59088093  0.84928802     0.62000
F1083       F  0.86923655  0.71122912  0.95204349    -0.23200
F1084       F  0.85303071  0.65476578  0.98248072    -0.20500
F1085       F  0.82151518  0.67342490  0.92946121    -0.20200
F1086       F  0.96712071  0.60490150  0.81167371    -0.20200
F1087       F  0.95801187  0.55146231  0.84894139    -0.20500
F1088       F  0.00394641  0.59517164  0.86365057    -0.23200
C1089       C  0.92615375  0.61155778  0.13898634    -0.06100
C1090       C  0.93454135  0.64926156  0.12381795    -0.00100
C1091       C  0.91247031  0.66313313  0.09238102    -0.08700
C1092       C  0.88512304  0.63787476  0.07627253    -0.06100
C1093       C  0.87718666  0.60050118  0.09130261    -0.00100
C1094       C  0.89687995  0.58744816  0.12427086    -0.08600
C1095       C  0.88710707  0.54985768  0.14642367     0.61800
H1096       H  0.94207617  0.60099699  0.16343885     0.12500
H1097       H  0.86866280  0.64750965  0.05195467     0.12500
C1098       C  0.91449794  0.70484692  0.07725197     0.62000
F1099       F  0.85806436  0.52837895  0.12981849    -0.23200
F1100       F  0.87495067  0.55824116  0.18347379    -0.20500
F1101       F  0.91976750  0.52767332  0.14856635    -0.20200
F1102       F  0.94899293  0.71260367  0.05755990    -0.20200
F1103       F  0.91024397  0.72932964  0.10761340    -0.20500
F1104       F  0.88521846  0.71280011  0.05200511    -0.23200
C1105       C  0.06540287  0.05633961  0.81577931    -0.06100
C1106       C  0.04568317  0.02291041  0.83042686    -0.00100
C1107       C  0.04419519  0.98891192  0.80811119    -0.08700
C1108       C  0.06587721  0.98848246  0.77336791    -0.06100
C1109       C  0.08956728  0.02028143  0.76116864    -0.00100
C1110       C  0.08750091  0.05562990  0.78121383    -0.08600
C1111       C  0.10840013  0.09234277  0.76618185     0.61800
H1112       H  0.06556316  0.08219698  0.83296434     0.12500
H1113       H  0.06666173  0.96220164  0.75698518     0.12500
C1114       C  0.02277374  0.95193641  0.82225325     0.62000
F1115       F  0.09949442  0.12420110  0.78798274    -0.23200
F1116       F  0.09744972  0.10005818  0.72882726    -0.20500
F1117       F  0.14790633  0.08770495  0.76705162    -0.20200
F1118       F  0.98715527  0.96038845  0.83812461    -0.20200
F1119       F  0.04415921  0.93336083  0.84983797    -0.20500
F1120       F  0.01662613  0.92660484  0.79250276    -0.23200
C1121       C  0.07579850  0.06667806  0.17653224    -0.06100
C1122       C  0.07996775  0.03249799  0.15572591    -0.00100
C1123       C  0.09650541  0.99967374  0.17412636    -0.08700
C1124       C  0.10447595  0.00093676  0.21327052    -0.06100
C1125       C  0.10147762  0.03509873  0.23390124    -0.00100
C1126       C  0.08765511  0.06887819  0.21513928    -0.08600
C1127       C  0.08617804  0.10701258  0.23565975     0.61800
H1128       H  0.06311162  0.09150313  0.16243707     0.12500
H1129       H  0.11641339  0.97570541  0.22749577     0.12500
C1130       C  0.10683800  0.96303379  0.15312594     0.62000
F1131       F  0.07083425  0.13611477  0.21294710    -0.23200
F1132       F  0.12323382  0.11875490  0.24504008    -0.20500
F1133       F  0.06334986  0.10221090  0.26880109    -0.20200
F1134       F  0.11873872  0.97177837  0.11551228    -0.20200
F1135       F  0.07499280  0.93774415  0.15369099    -0.20500
F1136       F  0.13704527  0.94441636  0.17056262    -0.23200
C1137       C  0.17477472  0.52396146  0.23324070    -0.06100
C1138       C  0.20242117  0.51184474  0.25988929    -0.00100
C1139       C  0.23577457  0.49264016  0.24487760    -0.08700
C1140       C  0.24247756  0.49259478  0.20474385    -0.06100
C1141       C  0.21610806  0.50729565  0.17888455    -0.00100
C1142       C  0.18122139  0.52269074  0.19319829    -0.08600
C1143       C  0.15071986  0.53764963  0.16638855     0.61800
H1144       H  0.14729567  0.53399036  0.24362235     0.12500
H1145       H  0.26892296  0.48075522  0.19327517     0.12500
C1146       C  0.26605947  0.47199432  0.26834235     0.62000
F1147       F  0.11750093  0.54838880  0.18608255    -0.23200
F1148       F  0.14051707  0.50893450  0.14114871    -0.20500
F1149       F  0.16533181  0.57000086  0.14604622    -0.20200
F1150       F  0.25371489  0.46153680  0.30527591    -0.20200
F1151       F  0.29894414  0.49573316  0.26970899    -0.20500
F1152       F  0.27596031  0.43790253  0.25063309    -0.23200
C1153       C  0.28652638  0.57187221  0.37024983    -0.06100
C1154       C  0.25746330  0.54723060  0.38863670    -0.00100
C1155       C  0.26611468  0.53066642  0.42533149    -0.08700
C1156       C  0.30356843  0.53654510  0.43961899    -0.06100
C1157       C  0.33401517  0.55443598  0.41746664    -0.00100
C1158       C  0.32523180  0.57368375  0.38259260    -0.08600
C1159       C  0.35677878  0.59326231  0.35710495     0.61800
H1160       H  0.27957847  0.58735406  0.34394467     0.12500
H1161       H  0.31056745  0.52386048  0.46733919     0.12500
C1162       C  0.23806474  0.50419960  0.44855528     0.62000
F1163       F  0.34276777  0.60592116  0.32210922    -0.23200
F1164       F  0.38567119  0.56730285  0.34963688    -0.20500
F1165       F  0.37247174  0.62506672  0.37527250    -0.20200
F1166       F  0.22619930  0.47377022  0.42610308    -0.20200
F1167       F  0.20696115  0.52506441  0.46134048    -0.20500
F1168       F  0.25466995  0.48816223  0.48090189    -0.23200
C1169       C  0.75594187  0.53822595  0.20664953    -0.06100
C1170       C  0.76883745  0.50802911  0.18371595    -0.00100
C1171       C  0.79115294  0.47860630  0.20104947    -0.08700
C1172       C  0.79774177  0.47978813  0.24069708    -0.06100
C1173       C  0.78470934  0.50970102  0.26445685    -0.00100
C1174       C  0.76298025  0.53991222  0.24644441    -0.08600
C1175       C  0.74497321  0.57468166  0.26589382     0.61800
H1176       H  0.73916307  0.56083234  0.19331186     0.12500
H1177       H  0.81258775  0.45579118  0.25272112     0.12500
C1178       C  0.80917157  0.44601956  0.17836893     0.62000
F1179       F  0.76015775  0.60860588  0.24854062    -0.23200
F1180       F  0.75053735  0.57720577  0.30479794    -0.20500
F1181       F  0.70543580  0.57317040  0.26050252    -0.20200
F1182       F  0.82903269  0.46146531  0.14647177    -0.20200
F1183       F  0.78073985  0.41998979  0.16709768    -0.20500
F1184       F  0.83546776  0.42536649  0.19962263    -0.23200
C1185       C  0.71707784  0.54792878  0.40841323    -0.06100
C1186       C  0.72924832  0.51046521  0.39969091    -0.00100
C1187       C  0.70867600  0.47749255  0.41527149    -0.08700
C1188       C  0.67527529  0.48306696  0.43792005    -0.06100
C1189       C  0.66110599  0.52033670  0.44406964    -0.00100
C1190       C  0.68292015  0.55354335  0.43041510    -0.08600
C1191       C  0.66932553  0.59435826  0.43746699     0.61800
H1192       H  0.73351795  0.57271537  0.39617596     0.12500
H1193       H  0.65825769  0.45804513  0.44886680     0.12500
C1194       C  0.72056724  0.43664483  0.40596484     0.62000
F1195       F  0.69420794  0.62240983  0.42046947    -0.23200
F1196       F  0.66750384  0.60058408  0.47664077    -0.20500
F1197       F  0.63305799  0.59895117  0.42240628    -0.20200
F1198       F  0.75838959  0.43140101  0.41641692    -0.20200
F1199       F  0.71734772  0.43110962  0.36688066    -0.20500
F1200       F  0.69746539  0.40862874  0.42534576    -0.23200
C1201       C  0.85566928  0.95986118  0.80065884    -0.06100
C1202       C  0.87275749  0.98784828  0.77428451    -0.00100
C1203       C  0.90505562  0.01030264  0.78599257    -0.08700
C1204       C  0.91934443  0.00337812  0.82272055    -0.06100
C1205       C  0.89996628  0.97875708  0.85039820    -0.00100
C1206       C  0.86767047  0.95617647  0.83920665    -0.08600
C1207       C  0.84430346  0.93107927  0.86833901     0.61800
H1208       H  0.83081459  0.94289127  0.79161060     0.12500
H1209       H  0.94444278  0.02017195  0.83139215     0.12500
C1210       C  0.92050763  0.04578680  0.76323265     0.62000
F1211       F  0.81120312  0.91522639  0.85267763    -0.23200
F1212       F  0.83331425  0.95332300  0.89910920    -0.20500
F1213       F  0.86626764  0.90096107  0.88159511    -0.20200
F1214       F  0.89044720  0.07088797  0.75892868    -0.20200
F1215       F  0.93542377  0.03558347  0.72783580    -0.20500
F1216       F  0.94972215  0.06556331  0.78186707    -0.23200
C1217       C  0.88775146  0.96243210  0.22910762    -0.06100
C1218       C  0.88747941  0.99918174  0.24586109    -0.00100
C1219       C  0.91186767  0.02966697  0.23036218    -0.08700
C1220       C  0.93384050  0.02296616  0.19666458    -0.06100
C1221       C  0.93135430  0.98736324  0.17786190    -0.00100
C1222       C  0.90973576  0.95588183  0.19527495    -0.08600
C1223       C  0.90962164  0.91594952  0.17782216     0.61800
H1224       H  0.86941359  0.93931336  0.24197710     0.12500
H1225       H  0.95131217  0.04630544  0.18317732     0.12500
C1226       C  0.91224011  0.06987033  0.24746725     0.62000
F1227       F  0.88479731  0.88993304  0.19786043    -0.23200
F1228       F  0.94658129  0.90170002  0.17876917    -0.20500
F1229       F  0.89809435  0.91816721  0.14005489    -0.20200
F1230       F  0.92064243  0.06744269  0.28597711    -0.20200
F1231       F  0.87640249  0.08609623  0.24338231    -0.20500
F1232       F  0.93991410  0.09455363  0.22984688    -0.23200
C1233       C  0.23275440  0.47729100  0.79391162    -0.06100
C1234       C  0.23224551  0.51149735  0.81521081    -0.00100
C1235       C  0.22269173  0.54682236  0.79545455    -0.08700
C1236       C  0.21233631  0.54546008  0.75659774    -0.06100
C1237       C  0.20913261  0.51072251  0.73621600    -0.00100
C1238       C  0.22333008  0.47632998  0.75458291    -0.08600
C1239       C  0.23029128  0.43757021  0.73549923     0.61800
H1240       H  0.24145549  0.45058470  0.80802942     0.12500
H1241       H  0.20804745  0.57260214  0.74167217     0.12500
C1242       C  0.22234960  0.58639010  0.81438730     0.62000
F1243       F  0.26702960  0.42549431  0.74402660    -0.23200
F1244       F  0.22831671  0.43854336  0.69595965    -0.20500
F1245       F  0.20359091  0.41004743  0.75022503    -0.20200
F1246       F  0.25896850  0.59641013  0.82659038    -0.20200
F1247       F  0.19638298  0.58514290  0.84518607    -0.20500
F1248       F  0.21105784  0.61593193  0.78963206    -0.23200
C1249       C  0.25192578  0.47220619  0.58304170    -0.06100
C1250       C  0.24264940  0.50924153  0.59605926    -0.00100
C1251       C  0.26670051  0.54193249  0.58558789    -0.08700
C1252       C  0.30093816  0.53589196  0.56472730    -0.06100
C1253       C  0.31263911  0.49843776  0.55583925    -0.00100
C1254       C  0.28707234  0.46609477  0.56295623    -0.08600
C1255       C  0.29784622  0.42541176  0.55163056     0.61800
H1256       H  0.23299577  0.44769869  0.59151662     0.12500
H1257       H  0.32056486  0.56029896  0.55776637     0.12500
C1258       C  0.25766266  0.58276586  0.59821203     0.62000
F1259       F  0.26922231  0.39803724  0.56241700    -0.23200
F1260       F  0.33162632  0.41522040  0.56925702    -0.20500
F1261       F  0.30328007  0.42424077  0.51209272    -0.20200
F1262       F  0.28475212  0.61017351  0.58380784    -0.20200
F1263       F  0.25722123  0.58448992  0.63791898    -0.20500
F1264       F  0.22208551  0.59295130  0.58490898    -0.23200
C1265       C  0.77198062  0.46966335  0.76074279    -0.06100
C1266       C  0.77529128  0.50486135  0.73913391    -0.00100
C1267       C  0.76567477  0.53964016  0.75853214    -0.08700
C1268       C  0.76204756  0.53850838  0.79898715    -0.06100
C1269       C  0.76147372  0.50358041  0.82082209    -0.00100
C1270       C  0.76492572  0.46796450  0.80082306    -0.08600
C1271       C  0.76066563  0.42785755  0.82052870     0.61800
H1272       H  0.77373870  0.44272397  0.74561625     0.12500
H1273       H  0.75778445  0.56554122  0.81364484     0.12500
C1274       C  0.75562135  0.57775732  0.73856674     0.62000
F1275       F  0.76443106  0.39792665  0.79488662    -0.23200
F1276       F  0.72432234  0.42346268  0.83791148    -0.20500
F1277       F  0.78892566  0.42338584  0.84760780    -0.20200
F1278       F  0.73892263  0.57154121  0.70360291    -0.20200
F1279       F  0.78833287  0.60157883  0.73383542    -0.20500
F1280       F  0.72875633  0.59736232  0.76044038    -0.23200
C1281       C  0.68834026  0.45357255  0.63009191    -0.06100
C1282       C  0.71654079  0.47864500  0.61130518    -0.00100
C1283       C  0.70823782  0.49412700  0.57413187    -0.08700
C1284       C  0.67055073  0.48843883  0.56055292    -0.06100
C1285       C  0.64084885  0.46885169  0.58251356    -0.00100
C1286       C  0.65027173  0.44925524  0.61690565    -0.08600
C1287       C  0.61986337  0.42619854  0.64073473     0.61800
H1288       H  0.69563416  0.43921400  0.65691282     0.12500
H1289       H  0.66314045  0.50124677  0.53302113     0.12500
C1290       C  0.73767881  0.51673935  0.54835833     0.62000
F1291       F  0.63510111  0.40949706  0.67349000    -0.23200
F1292       F  0.60441740  0.39669883  0.61903406    -0.20500
F1293       F  0.59072517  0.45046371  0.65208057    -0.20200
F1294       F  0.72075590  0.53392800  0.51672691    -0.20200
F1295       F  0.76492273  0.49164122  0.53447299    -0.20500
F1296       F  0.75545724  0.54615256  0.56826622    -0.23200
C1297       C  0.00418288  0.31625798  0.30866411    -0.06100
C1298       C  0.99008273  0.28036353  0.32397256    -0.00100
C1299       C  0.97124934  0.25390695  0.29975675    -0.08700
C1300       C  0.96711720  0.26469609  0.26099552    -0.06100
C1301       C  0.98402723  0.29930861  0.24422792    -0.00100
C1302       C  0.99988257  0.32720127  0.26967289    -0.08600
C1303       C  0.01161349  0.36909420  0.25866769     0.61800
H1304       H  0.01715257  0.33689125  0.32801296     0.12500
H1305       H  0.94995188  0.24518424  0.24402156     0.12500
C1306       C  0.95650232  0.21321510  0.31213091     0.62000
F1307       F  0.05153914  0.37272577  0.25666428    -0.23200
F1308       F  0.99785506  0.39355734  0.28657544    -0.20500
F1309       F  0.99689574  0.38204452  0.22429612    -0.20200
F1310       F  0.91712707  0.20995742  0.30640854    -0.20200
F1311       F  0.96318193  0.20360443  0.35016191    -0.20500
F1312       F  0.97488162  0.18630315  0.28963114    -0.23200
C1313       C  0.97180086  0.25416239  0.71199988    -0.06100
C1314       C  0.99591410  0.27567646  0.68597170    -0.00100
C1315       C  0.01674849  0.30851880  0.69929630    -0.08700
C1316       C  0.01278162  0.31814207  0.73813240    -0.06100
C1317       C  0.99106933  0.29499407  0.76541859    -0.00100
C1318       C  0.96770644  0.26364928  0.75111552    -0.08600
C1319       C  0.93728390  0.23916841  0.77403698     0.61800
H1320       H  0.95504726  0.22995938  0.70132051     0.12500
H1321       H  0.02606957  0.34507255  0.74676552     0.12500
C1322       C  0.04241072  0.33430016  0.67267368     0.62000
F1323       F  0.90379924  0.23641208  0.75311612    -0.23200
F1324       F  0.92687672  0.25413060  0.80906479    -0.20500
F1325       F  0.95087160  0.20210670  0.77992660    -0.20200
F1326       F  0.02110852  0.34748551  0.64230539    -0.20200
F1327       F  0.07312533  0.31334095  0.65911649    -0.20500
F1328       F  0.05757773  0.36647974  0.69089786    -0.23200
C1329       C  0.87373068  0.37990271  0.39201730    -0.06100
C1330       C  0.89728924  0.39298371  0.42184580    -0.00100
C1331       C  0.89486840  0.43248806  0.43281896    -0.08700
C1332       C  0.86979501  0.45697663  0.41274362    -0.06100
C1333       C  0.84559535  0.44337125  0.38368721    -0.00100
C1334       C  0.84644571  0.40338350  0.37440614    -0.08600
C1335       C  0.81894481  0.38306198  0.34733088     0.61800
H1336       H  0.87538872  0.35003921  0.38303252     0.12500
H1337       H  0.86961716  0.48753538  0.41927545     0.12500
C1338       C  0.91808452  0.44930478  0.46543902     0.62000
F1339       F  0.83792603  0.37750765  0.31244454    -0.23200
F1340       F  0.78570472  0.40325111  0.34114941    -0.20500
F1341       F  0.80726876  0.34705321  0.36293245    -0.20200
F1342       F  0.95717704  0.44910408  0.45594777    -0.20200
F1343       F  0.91058638  0.42765773  0.49904957    -0.20500
F1344       F  0.90870241  0.48734117  0.47272456    -0.23200
C1345       C  0.85279843  0.37399302  0.59688053    -0.06100
C1346       C  0.89269466  0.38316810  0.59476662    -0.00100
C1347       C  0.90661756  0.41822454  0.61083921    -0.08700
C1348       C  0.87991775  0.44321691  0.62771883    -0.06100
C1349       C  0.84011877  0.43477350  0.62814803    -0.00100
C1350       C  0.82611568  0.39945614  0.61304542    -0.08600
C1351       C  0.78322098  0.38906342  0.61324885     0.61800
H1352       H  0.84247524  0.34713213  0.58454493     0.12500
H1353       H  0.88985790  0.47001933  0.64040712     0.12500
C1354       C  0.94934641  0.42896257  0.61131924     0.62000
F1355       F  0.77625804  0.35110772  0.60233325    -0.23200
F1356       F  0.76520343  0.41352493  0.58766582    -0.20500
F1357       F  0.76718229  0.39297913  0.64979471    -0.20200
F1358       F  0.96291246  0.43862990  0.57442132    -0.20200
F1359       F  0.96945687  0.39799070  0.62575376    -0.20500
F1360       F  0.95643222  0.46040119  0.63442872    -0.23200
C1361       C  0.14917906  0.41324111  0.62116298    -0.06100
C1362       C  0.13007912  0.44675429  0.63192605    -0.00100
C1363       C  0.09050123  0.45049514  0.62416163    -0.08700
C1364       C  0.07129538  0.42063803  0.60482918    -0.06100
C1365       C  0.09033982  0.38717091  0.59317002    -0.00100
C1366       C  0.13009609  0.38304931  0.60184908    -0.08600
C1367       C  0.15288230  0.34767647  0.59052815     0.61800
H1368       H  0.17949980  0.41119457  0.62775450     0.12500
H1369       H  0.04103429  0.42346215  0.59841008     0.12500
C1370       C  0.06883054  0.48620881  0.63556094     0.62000
F1371       F  0.19202150  0.35291392  0.59684147    -0.23200
F1372       F  0.14878926  0.34051385  0.55186387    -0.20500
F1373       F  0.13984462  0.31542829  0.61214542    -0.20200
F1374       F  0.08157502  0.51747639  0.61262115    -0.20200
F1375       F  0.07489790  0.49390759  0.67381938    -0.20500
F1376       F  0.02947362  0.48148580  0.63095921    -0.23200
C1377       C  0.13901678  0.45341366  0.42202942    -0.06100
C1378       C  0.13970787  0.45580944  0.38144080    -0.00100
C1379       C  0.11255804  0.43133071  0.36183720    -0.08700
C1380       C  0.09235561  0.40144788  0.38285956    -0.06100
C1381       C  0.09237055  0.39905120  0.42296786    -0.00100
C1382       C  0.11479253  0.42646041  0.44319365    -0.08600
C1383       C  0.11377230  0.42677596  0.48686121     0.61800
H1384       H  0.15709945  0.47316032  0.43756953     0.12500
H1385       H  0.07389668  0.38110636  0.36785782     0.12500
C1386       C  0.09989435  0.43684150  0.32032100     0.62000
F1387       F  0.14070303  0.45296693  0.50100150    -0.23200
F1388       F  0.12171746  0.39023006  0.50130294    -0.20500
F1389       F  0.07751316  0.43711752  0.50001124    -0.20200
F1390       F  0.11820849  0.41042995  0.29723447    -0.20200
F1391       F  0.10664015  0.47408034  0.30562060    -0.20500
F1392       F  0.06034318  0.43007598  0.31843478    -0.23200
C1393       C  0.11257548  0.13784930  0.61288775    -0.06100
C1394       C  0.07939664  0.12684081  0.59272019    -0.00100
C1395       C  0.06587110  0.08739259  0.59580975    -0.08700
C1396       C  0.08575232  0.06132387  0.61938979    -0.06100
C1397       C  0.11814289  0.07246685  0.64063191    -0.00100
C1398       C  0.13171167  0.11202959  0.63755414    -0.08600
C1399       C  0.16570883  0.12871196  0.65947284     0.61800
H1400       H  0.12362003  0.16754748  0.60948794     0.12500
H1401       H  0.07547451  0.03150509  0.62150240     0.12500
C1402       C  0.03015086  0.07225764  0.57553742     0.62000
F1403       F  0.19981565  0.12233780  0.63931353    -0.23200
F1404       F  0.16735904  0.11258195  0.69608641    -0.20500
F1405       F  0.16275039  0.16845501  0.66372480    -0.20200
F1406       F  0.03635525  0.07468209  0.53603290    -0.20200
F1407       F  0.99859473  0.09373193  0.58599373    -0.20500
F1408       F  0.02108083  0.03370986  0.58521787    -0.23200
C1409       C  0.89713133  0.09198363  0.58807206    -0.06100
C1410       C  0.91304100  0.12456930  0.60571929    -0.00100
C1411       C  0.91294570  0.12559795  0.64645955    -0.08700
C1412       C  0.89515477  0.09449874  0.66789864    -0.06100
C1413       C  0.87795244  0.06223930  0.65047376    -0.00100
C1414       C  0.87844528  0.06138376  0.60939356    -0.08600
C1415       C  0.85858126  0.03087464  0.58547419     0.61800
H1416       H  0.89743597  0.09136083  0.55683668     0.12500
H1417       H  0.89229859  0.09678043  0.69851648     0.12500
C1418       C  0.93056885  0.15962610  0.66753962     0.62000
F1419       F  0.88600285  0.01318545  0.56268300    -0.23200
F1420       F  0.83241681  0.04871410  0.56181184    -0.20500
F1421       F  0.83871500  0.00258393  0.60698725    -0.20200
F1422       F  0.90687484  0.19118246  0.66417183    -0.20200
F1423       F  0.96698868  0.16936315  0.65216372    -0.20500
F1424       F  0.93454749  0.15095594  0.70637615    -0.23200
C1425       C  0.92115220  0.10088377  0.40249945    -0.06100
C1426       C  0.90260716  0.13619776  0.40636468    -0.00100
C1427       C  0.86806108  0.14180213  0.38606077    -0.08700
C1428       C  0.85460549  0.11217354  0.36188453    -0.06100
C1429       C  0.87165084  0.07524550  0.35939949    -0.00100
C1430       C  0.90660339  0.06993418  0.38068946    -0.08600
C1431       C  0.93082454  0.03354064  0.38142406     0.61800
H1432       H  0.94837715  0.09789848  0.41675727     0.12500
H1433       H  0.83030279  0.11856520  0.34424130     0.12500
C1434       C  0.84442926  0.17821582  0.39027199     0.62000
F1435       F  0.95850446  0.03436855  0.40958959    -0.23200
F1436       F  0.95062138  0.03037634  0.34667528    -0.20500
F1437       F  0.90802515  0.00099412  0.38980391    -0.20200
F1438       F  0.86400230  0.20985779  0.37289218    -0.20200
F1439       F  0.83762480  0.18519375  0.42889625    -0.20500
F1440       F  0.80877892  0.17448682  0.37325375    -0.23200
C1441       C  0.08870608  0.10281542  0.42153754    -0.06100
C1442       C  0.08071583  0.13902060  0.40408887    -0.00100
C1443       C  0.09143514  0.14591085  0.36461372    -0.08700
C1444       C  0.11049006  0.11664986  0.34469169    -0.06100
C1445       C  0.11744041  0.08041888  0.36183203    -0.00100
C1446       C  0.10653322  0.07312220  0.40092794    -0.08600
C1447       C  0.11190845  0.03378679  0.42044350     0.61800
H1448       H  0.08013305  0.09757747  0.45147452     0.12500
H1449       H  0.12002819  0.12176091  0.31513913     0.12500
C1450       C  0.08195844  0.18315039  0.34275885     0.62000
F1451       F  0.10654777  0.03531422  0.46003389    -0.23200
F1452       F  0.14881934  0.02095896  0.41311353    -0.20500
F1453       F  0.08517857  0.00734592  0.40667342    -0.20200
F1454       F  0.10533448  0.21353396  0.35478214    -0.20200
F1455       F  0.04352724  0.19167048  0.34905134    -0.20500
F1456       F  0.08785120  0.17991519  0.30339125    -0.23200
C1457       C  0.02631732  0.74161953  0.29852126    -0.06100
C1458       C  0.99213403  0.73341258  0.32025420    -0.00100
C1459       C  0.96264642  0.71046706  0.30329781    -0.08700
C1460       C  0.96774862  0.69879142  0.26511302    -0.06100
C1461       C  0.00164477  0.70717801  0.24255612    -0.00100
C1462       C  0.03230683  0.72859432  0.26056820    -0.08600
C1463       C  0.07220998  0.73706726  0.24175293     0.61800
H1464       H  0.04904380  0.75816705  0.31205367     0.12500
H1465       H  0.94349193  0.68428535  0.25287960     0.12500
C1466       C  0.92603497  0.69675010  0.32527853     0.62000
F1467       F  0.09495811  0.76131064  0.26366848    -0.23200
F1468       F  0.06962191  0.75521313  0.20611028    -0.20500
F1469       F  0.09161692  0.70280735  0.23825765    -0.20200
F1470       F  0.90329201  0.72807659  0.33342636    -0.20200
F1471       F  0.93631171  0.67810604  0.35880796    -0.20500
F1472       F  0.90382355  0.67048500  0.30504793    -0.23200
C1473       C  0.01421039  0.75744998  0.69961250    -0.06100
C1474       C  0.98773383  0.73499362  0.67925159    -0.00100
C1475       C  0.97126717  0.70049613  0.69647409    -0.08700
C1476       C  0.97996801  0.69142747  0.73487160    -0.06100
C1477       C  0.00451983  0.71547416  0.75652021    -0.00100
C1478       C  0.02540271  0.74666709  0.73666253    -0.08600
C1479       C  0.06094260  0.76848820  0.75102174     0.61800
H1480       H  0.02847295  0.78252542  0.68519788     0.12500
H1481       H  0.96816281  0.66466341  0.74777286     0.12500
C1482       C  0.94586284  0.67263352  0.67420265     0.62000
F1483       F  0.08916227  0.77101729  0.72196931    -0.23200
F1484       F  0.07743592  0.75041852  0.78208295    -0.20500
F1485       F  0.05120275  0.80580028  0.76063295    -0.20200
F1486       F  0.96577313  0.66093514  0.64164056    -0.20200
F1487       F  0.91251490  0.69082025  0.66351636    -0.20500
F1488       F  0.93496892  0.63960322  0.69590098    -0.23200
C1489       C  0.07003186  0.60686757  0.39365609    -0.06100
C1490       C  0.08856331  0.63997364  0.40824237    -0.00100
C1491       C  0.12925249  0.64537598  0.40199405    -0.08700
C1492       C  0.14999725  0.61606777  0.38367336    -0.06100
C1493       C  0.13140569  0.58319398  0.36902824    -0.00100
C1494       C  0.09056165  0.57895170  0.37303778    -0.08600
C1495       C  0.06858600  0.54538383  0.35556714     0.61800
H1496       H  0.03895663  0.60350310  0.39782330     0.12500
H1497       H  0.18114406  0.61892588  0.37978923     0.12500
C1498       C  0.15104381  0.68196269  0.41365586     0.62000
F1499       F  0.02902834  0.54736860  0.36207507    -0.23200
F1500       F  0.08034374  0.51084344  0.37163940    -0.20500
F1501       F  0.07555609  0.54584704  0.31619130    -0.20200
F1502       F  0.14110664  0.71284246  0.39003029    -0.20200
F1503       F  0.14214082  0.69030411  0.45139386    -0.20500
F1504       F  0.19069140  0.67808196  0.41037389    -0.23200
C1505       C  0.08273723  0.62947047  0.62588994    -0.06100
C1506       C  0.08669189  0.63396058  0.58592792    -0.00100
C1507       C  0.11395397  0.61171667  0.56590179    -0.08700
C1508       C  0.13648298  0.58563721  0.58680559    -0.06100
C1509       C  0.13289839  0.58038973  0.62720737    -0.00100
C1510       C  0.10441219  0.60258512  0.64712861    -0.08600
C1511       C  0.09584894  0.59973254  0.69028793     0.61800
H1512       H  0.06203500  0.64746034  0.64048709     0.12500
H1513       H  0.15758013  0.56943790  0.57106713     0.12500
C1514       C  0.12099662  0.61742728  0.52286861     0.62000
F1515       F  0.05992394  0.61417808  0.69967953    -0.23200
F1516       F  0.12323621  0.62174814  0.70901441    -0.20500
F1517       F  0.09536769  0.56161488  0.70374335    -0.20200
F1518       F  0.13170541  0.65584618  0.51543652    -0.20200
F1519       F  0.08773340  0.60826446  0.50341808    -0.20500
F1520       F  0.15020149  0.59448021  0.50885492    -0.23200
C1521       C  0.86836838  0.55286475  0.59717072    -0.06100
C1522       C  0.83291440  0.56372985  0.61334252    -0.00100
C1523       C  0.82348457  0.60352596  0.61231912    -0.08700
C1524       C  0.85109404  0.63123766  0.59781380    -0.06100
C1525       C  0.88735872  0.62091559  0.58230336    -0.00100
C1526       C  0.89595270  0.58048053  0.58161527    -0.08600
C1527       C  0.93403846  0.56580327  0.56560649     0.61800
H1528       H  0.87474994  0.52230072  0.59785669     0.12500
H1529       H  0.84337592  0.66154956  0.59777892     0.12500
C1530       C  0.78438280  0.61851436  0.62481259     0.62000
F1531       F  0.93696315  0.52598885  0.57109121    -0.23200
F1532       F  0.96466239  0.58349437  0.58394549    -0.20500
F1533       F  0.93702185  0.57365797  0.52637480    -0.20200
F1534       F  0.78854959  0.64083126  0.65709455    -0.20200
F1535       F  0.75707066  0.58924539  0.63279159    -0.20500
F1536       F  0.77028590  0.64144565  0.59544046    -0.23200
C1537       C  0.91040822  0.60224356  0.39195214    -0.06100
C1538       C  0.89303907  0.62532009  0.41982228    -0.00100
C1539       C  0.85314794  0.61998525  0.42916325    -0.08700
C1540       C  0.83132087  0.59290319  0.40862179    -0.06100
C1541       C  0.84808459  0.57164939  0.37904064    -0.00100
C1542       C  0.88846329  0.57562821  0.37076740    -0.08600
C1543       C  0.90856334  0.55182682  0.34022560     0.61800
H1544       H  0.94118463  0.60627991  0.38600643     0.12500
H1545       H  0.80076443  0.58826196  0.41531249     0.12500
C1546       C  0.83406985  0.64192356  0.46150061     0.62000
F1547       F  0.89632581  0.56255589  0.30405096    -0.23200
F1548       F  0.90045055  0.51265273  0.34687272    -0.20500
F1549       F  0.94834454  0.55740057  0.34024154    -0.20200
F1550       F  0.83492377  0.68127657  0.45244553    -0.20200
F1551       F  0.85360818  0.63549506  0.49522232    -0.20500
F1552       F  0.79579516  0.63004740  0.46788446    -0.23200
C1553       C  0.04750537  0.91675616  0.37216620    -0.06100
C1554       C  0.07022656  0.89632671  0.39830634    -0.00100
C1555       C  0.11071523  0.90344486  0.39736097    -0.08700
C1556       C  0.12673574  0.93189494  0.37137892    -0.06100
C1557       C  0.10457576  0.95195683  0.34404131    -0.00100
C1558       C  0.06399515  0.94308055  0.34387183    -0.08600
C1559       C  0.03699109  0.95943184  0.31424754     0.61800
H1560       H  0.01657023  0.91064629  0.37276488     0.12500
H1561       H  0.15722429  0.93887642  0.37291134     0.12500
C1562       C  0.13707799  0.88163913  0.42422633     0.62000
F1563       F  0.00925291  0.93161468  0.30499772    -0.23200
F1564       F  0.05639251  0.97053107  0.28039810    -0.20500
F1565       F  0.01845163  0.99091311  0.32933357    -0.20200
F1566       F  0.12507028  0.88649316  0.46190251    -0.20200
F1567       F  0.17524145  0.89478398  0.42038647    -0.20500
F1568       F  0.13595805  0.84247694  0.41633078    -0.23200
C1569       C  0.87191243  0.91121083  0.42341839    -0.06100
C1570       C  0.89523788  0.88447793  0.40453025    -0.00100
C1571       C  0.89925937  0.88625924  0.36373924    -0.08700
C1572       C  0.88049248  0.91566623  0.34332103    -0.06100
C1573       C  0.85676478  0.94187866  0.36208517    -0.00100
C1574       C  0.85166935  0.93954100  0.40273318    -0.08600
C1575       C  0.82560067  0.96716045  0.42414481     0.61800
H1576       H  0.86924840  0.90927257  0.45455006     0.12500
H1577       H  0.88401264  0.91839994  0.31228611     0.12500
C1578       C  0.92365420  0.85772425  0.34172845     0.62000
F1579       F  0.82858407  0.96296737  0.46368811    -0.23200
F1580       F  0.78753258  0.95968991  0.41487732    -0.20500
F1581       F  0.83530177  0.00540594  0.41425843    -0.20200
F1582       F  0.90613684  0.82108337  0.34435619    -0.20200
F1583       F  0.96023686  0.85634528  0.35678235    -0.20500
F1584       F  0.92779759  0.86816033  0.30304415    -0.23200
C1585       C  0.86436881  0.86983538  0.62514237    -0.06100
C1586       C  0.89680381  0.88172121  0.60170245    -0.00100
C1587       C  0.91251568  0.92008856  0.60609818    -0.08700
C1588       C  0.89356645  0.94528944  0.63101601    -0.06100
C1589       C  0.86127638  0.93358494  0.65420598    -0.00100
C1590       C  0.84772163  0.89431162  0.65279120    -0.08600
C1591       C  0.81791004  0.87605622  0.68117047     0.61800
H1592       H  0.85279888  0.84036142  0.62313636     0.12500
H1593       H  0.90407345  0.97509294  0.63216551     0.12500
C1594       C  0.95050499  0.93439170  0.58697385     0.62000
F1595       F  0.82970589  0.83968896  0.69316134    -0.23200
F1596       F  0.78277427  0.87185235  0.66340019    -0.20500
F1597       F  0.81316266  0.89760169  0.71393724    -0.20200
F1598       F  0.94698184  0.93740627  0.54745175    -0.20200
F1599       F  0.97900315  0.90876355  0.59628243    -0.20500
F1600       F  0.96233932  0.97063978  0.59944886    -0.23200
C1601       C  0.07107188  0.88110584  0.63748562    -0.06100
C1602       C  0.06631615  0.89206292  0.59852865    -0.00100
C1603       C  0.07924968  0.93006357  0.58587434    -0.08700
C1604       C  0.09877975  0.95398965  0.61197478    -0.06100
C1605       C  0.10367904  0.94279152  0.65060737    -0.00100
C1606       C  0.08915313  0.90574409  0.66385003    -0.08600
C1607       C  0.09127058  0.89046827  0.70511516     0.61800
H1608       H  0.06032809  0.85266469  0.64773405     0.12500
H1609       H  0.11133413  0.98171856  0.60208955     0.12500
C1610       C  0.07355787  0.94559743  0.54512373     0.62000
F1611       F  0.11164626  0.91493160  0.72865418    -0.23200
F1612       F  0.10908560  0.85497013  0.70548051    -0.20500
F1613       F  0.05409121  0.88519817  0.72040464    -0.20200
F1614       F  0.03455301  0.94807699  0.53811734    -0.20200
F1615       F  0.09030472  0.92131326  0.51896183    -0.20500
F1616       F  0.09018887  0.98242932  0.53906748    -0.23200
C1617       C  0.22241003  0.82669996  0.52540722    -0.06100
C1618       C  0.24777990  0.80772877  0.50019041    -0.00100
C1619       C  0.23124286  0.78125122  0.47317482    -0.08700
C1620       C  0.19111049  0.77440248  0.47429697    -0.06100
C1621       C  0.16676979  0.79129986  0.50123947    -0.00100
C1622       C  0.18239035  0.81867814  0.52683392    -0.08600
C1623       C  0.15706544  0.84031763  0.55502261     0.61800
H1624       H  0.23354153  0.84741386  0.54514684     0.12500
H1625       H  0.17855408  0.75448358  0.45410450     0.12500
C1626       C  0.25226319  0.75768870  0.44262108     0.62000
F1627       F  0.17701234  0.87061046  0.57195598    -0.23200
F1628       F  0.14311063  0.81515996  0.58412820    -0.20500
F1629       F  0.12654933  0.85593413  0.53577150    -0.20200
F1630       F  0.24485965  0.71853110  0.45047012    -0.20200
F1631       F  0.29172654  0.76290103  0.43969946    -0.20500
F1632       F  0.23773271  0.76696694  0.40687025    -0.23200
C1633       C  0.35344243  0.70665042  0.49811482    -0.06100
C1634       C  0.36827331  0.73758880  0.51957618    -0.00100
C1635       C  0.39402480  0.72892078  0.54965375    -0.08700
C1636       C  0.40589042  0.69018292  0.55486223    -0.06100
C1637       C  0.39159423  0.65986894  0.53246192    -0.00100
C1638       C  0.36263293  0.66799249  0.50577141    -0.08600
C1639       C  0.33972119  0.63688735  0.48527032     0.61800
H1640       H  0.33252134  0.71245621  0.47614633     0.12500
H1641       H  0.42742963  0.68377499  0.57559146     0.12500
C1642       C  0.40783772  0.75951928  0.57710504     0.62000
F1643       F  0.30067549  0.64126127  0.49308304    -0.23200
F1644       F  0.34873580  0.59958763  0.49679495    -0.20500
F1645       F  0.34649487  0.64128663  0.44605976    -0.20200
F1646       F  0.37619847  0.77599337  0.59435268    -0.20200
F1647       F  0.43030126  0.78776021  0.55756298    -0.20500
F1648       F  0.42982926  0.74396675  0.60607391    -0.23200
C1649       C  0.23751856  0.24021174  0.47075079    -0.06100
C1650       C  0.24640356  0.20632998  0.49219428    -0.00100
C1651       C  0.21504320  0.18450912  0.50997862    -0.08700
C1652       C  0.17936681  0.20248264  0.51505277    -0.06100
C1653       C  0.17190211  0.23839793  0.49705153    -0.00100
C1654       C  0.20083921  0.25672981  0.47279567    -0.08600
C1655       C  0.19370045  0.29405449  0.45003801     0.61800
H1656       H  0.26012134  0.25442335  0.45294433     0.12500
H1657       H  0.15584026  0.18654220  0.53023600     0.12500
C1658       C  0.21522840  0.14093995  0.51764142     0.62000
F1659       F  0.22731744  0.30935773  0.43236847    -0.23200
F1660       F  0.17931883  0.32172316  0.47435527    -0.20500
F1661       F  0.16751160  0.28686788  0.42149650    -0.20200
F1662       F  0.21385617  0.13300502  0.55686544    -0.20200
F1663       F  0.24711827  0.12417292  0.50092186    -0.20500
F1664       F  0.18289767  0.12371722  0.50168397    -0.23200
C1665       C  0.38510148  0.27770963  0.54455579    -0.06100
C1666       C  0.37871556  0.26443530  0.50729149    -0.00100
C1667       C  0.39070864  0.28776939  0.47499440    -0.08700
C1668       C  0.40744897  0.32462102  0.48104003    -0.06100
C1669       C  0.41337850  0.33862853  0.51825561    -0.00100
C1670       C  0.40262416  0.31452900  0.55066333    -0.08600
C1671       C  0.40684499  0.32870245  0.59118351     0.61800
H1672       H  0.37454575  0.25974910  0.56883854     0.12500
H1673       H  0.41597694  0.34315084  0.45640657     0.12500
C1674       C  0.38505264  0.27391813  0.43429647     0.62000
F1675       F  0.38802537  0.30405515  0.61817344    -0.23200
F1676       F  0.39082118  0.36479675  0.59373662    -0.20500
F1677       F  0.44557135  0.33132407  0.59997277    -0.20200
F1678       F  0.34604383  0.26859576  0.42756996    -0.20200
F1679       F  0.40333729  0.23904489  0.42971458    -0.20500
F1680       F  0.40037169  0.30034584  0.40687403    -0.23200
C1681       C  0.71692476  0.26133002  0.02576039    -0.06100
C1682       C  0.68951856  0.25141879  0.99784310    -0.00100
C1683       C  0.66947774  0.28212805  0.97970916    -0.08700
C1684       C  0.68447120  0.32022767  0.98286130    -0.06100
C1685       C  0.71523051  0.32916465  0.00705971    -0.00100
C1686       C  0.73061431  0.29957440  0.03042143    -0.08600
C1687       C  0.76261163  0.30759257  0.05856422     0.61800
H1688       H  0.72910249  0.23816653  0.04284490     0.12500
H1689       H  0.67092513  0.34376995  0.96735161     0.12500
C1690       C  0.63000861  0.27758891  0.96187718     0.62000
F1691       F  0.77572346  0.27362590  0.07531014    -0.23200
F1692       F  0.74913457  0.33058258  0.08778735    -0.20500
F1693       F  0.79367065  0.32635542  0.03953615    -0.20200
F1694       F  0.60980765  0.24511155  0.97671747    -0.20200
F1695       F  0.63413457  0.27571289  0.92226714    -0.20500
F1696       F  0.60768376  0.30931247  0.97009842    -0.23200
C1697       C  0.81308542  0.09113339  0.95158045    -0.06100
C1698       C  0.84157231  0.10761291  0.97471691    -0.00100
C1699       C  0.83096032  0.13645650  0.00093402    -0.08700
C1700       C  0.79195186  0.14536083  0.00550137    -0.06100
C1701       C  0.76296577  0.12980898  0.98213299    -0.00100
C1702       C  0.77379513  0.10168904  0.95459436    -0.08600
C1703       C  0.74469396  0.08120654  0.92963268     0.61800
H1704       H  0.82150119  0.06796543  0.93282607     0.12500
H1705       H  0.78421553  0.16624293  0.02708610     0.12500
C1706       C  0.85954738  0.15829321  0.02546201     0.62000
F1707       F  0.76252905  0.05866765  0.90227957    -0.23200
F1708       F  0.72307308  0.10800029  0.91025477    -0.20500
F1709       F  0.72077717  0.05681884  0.95240124    -0.20200
F1710       F  0.89759544  0.15318374  0.01399102    -0.20200
F1711       F  0.85426877  0.14570455  0.06328657    -0.20500
F1712       F  0.85280544  0.19775995  0.02312956    -0.23200
C1713       C  0.25124676  0.25481605  0.02128469    -0.06100
C1714       C  0.28543199  0.24512217  0.00105748    -0.00100
C1715       C  0.31039908  0.27639367  0.98737376    -0.08700
C1716       C  0.29542136  0.31388329  0.98457503    -0.06100
C1717       C  0.25977467  0.32279875  0.00186982    -0.00100
C1718       C  0.23836761  0.29319098  0.02280799    -0.08600
C1719       C  0.20171935  0.30139108  0.04584877     0.61800
H1720       H  0.23455574  0.23185432  0.03636662     0.12500
H1721       H  0.31346054  0.33739614  0.97180879     0.12500
C1722       C  0.35383286  0.27378231  0.98089139     0.62000
F1723       F  0.18503543  0.26788345  0.06278854    -0.23200
F1724       F  0.17504611  0.31745720  0.02187305    -0.20500
F1725       F  0.20979846  0.32678990  0.07495216    -0.20200
F1726       F  0.36846181  0.24056727  0.99733367    -0.20200
F1727       F  0.37237591  0.30482341  0.99802843    -0.20500
F1728       F  0.36272149  0.27558650  0.94185349    -0.23200
C1729       C  0.22262028  0.08061998  0.01443866    -0.06100
C1730       C  0.23199133  0.10775607  0.98469398    -0.00100
C1731       C  0.20838786  0.10918275  0.95177872    -0.08700
C1732       C  0.17401974  0.08627952  0.95188833    -0.06100
C1733       C  0.16276394  0.06181735  0.98324611    -0.00100
C1734       C  0.18816823  0.05782420  0.01462616    -0.08600
C1735       C  0.18022198  0.03119270  0.04959853     0.61800
H1736       H  0.24115296  0.07903383  0.03914008     0.12500
H1737       H  0.15461293  0.08922785  0.92799673     0.12500
C1738       C  0.21709078  0.13470908  0.91614675     0.62000
F1739       F  0.20981423  0.00513955  0.05264401    -0.23200
F1740       F  0.14585469  0.01016922  0.04782765    -0.20500
F1741       F  0.17900700  0.05307531  0.08246950    -0.20200
F1742       F  0.21531114  0.11211678  0.88379484    -0.20200
F1743       F  0.25325151  0.15271962  0.91586309    -0.20500
F1744       F  0.18956128  0.16297747  0.91364075    -0.23200
C1745       C  0.74049966  0.77726025  0.52254952    -0.06100
C1746       C  0.73138239  0.81007310  0.49951092    -0.00100
C1747       C  0.76274312  0.83094366  0.48018801    -0.08700
C1748       C  0.79915109  0.81368848  0.47802670    -0.06100
C1749       C  0.80723270  0.77989056  0.49936836    -0.00100
C1750       C  0.77767992  0.76173207  0.52277756    -0.08600
C1751       C  0.78469143  0.72512585  0.54657268     0.61800
H1752       H  0.71765313  0.76318737  0.54016403     0.12500
H1753       H  0.82271949  0.82873107  0.46204156     0.12500
C1754       C  0.76216653  0.87342445  0.46750021     0.62000
F1755       F  0.80934976  0.73338634  0.57614727    -0.23200
F1756       F  0.80088928  0.69748962  0.52345418    -0.20500
F1757       F  0.75061811  0.70933789  0.56275624    -0.20200
F1758       F  0.79604646  0.89215847  0.47798763    -0.20200
F1759       F  0.73265099  0.89277717  0.48520192    -0.20500
F1760       F  0.75941565  0.87657416  0.42790588    -0.23200
C1761       C  0.56925478  0.74371681  0.50996952    -0.06100
C1762       C  0.59792797  0.75389063  0.48213719    -0.00100
C1763       C  0.60417367  0.72869013  0.45056903    -0.08700
C1764       C  0.58366242  0.69271024  0.45025518    -0.06100
C1765       C  0.55713828  0.68145365  0.47975396    -0.00100
C1766       C  0.54917372  0.70762327  0.50953845    -0.08600
C1767       C  0.52078068  0.69621356  0.54174333     0.61800
H1768       H  0.56476966  0.76297832  0.53376086     0.12500
H1769       H  0.58942748  0.67261602  0.42737466     0.12500
C1770       C  0.63184532  0.73740641  0.41646017     0.62000
F1771       F  0.51571777  0.72578340  0.56753725    -0.23200
F1772       F  0.53434516  0.66428098  0.56154190    -0.20500
F1773       F  0.48545456  0.68697234  0.52620053    -0.20200
F1774       F  0.66013514  0.70975883  0.41578839    -0.20200
F1775       F  0.64972412  0.77373216  0.41677987    -0.20500
F1776       F  0.61149575  0.73538384  0.38277260    -0.23200
C1777       C  0.69579763  0.70039444  0.97173325    -0.06100
C1778       C  0.72552935  0.69059433  0.99669498    -0.00100
C1779       C  0.73961537  0.71902808  0.02200585    -0.08700
C1780       C  0.72494639  0.75676888  0.01955000    -0.06100
C1781       C  0.69624418  0.76747033  0.99331098    -0.00100
C1782       C  0.67852281  0.73703035  0.97199836    -0.08600
C1783       C  0.63863607  0.73903335  0.95463154     0.61800
H1784       H  0.68354747  0.67780189  0.95410432     0.12500
H1785       H  0.73563806  0.77843375  0.03898075     0.12500
C1786       C  0.77043197  0.71014924  0.05113600     0.62000
F1787       F  0.61934006  0.70319953  0.95800837    -0.23200
F1788       F  0.64206702  0.74888414  0.91587972    -0.20500
F1789       F  0.61569875  0.76509994  0.97356176    -0.20200
F1790       F  0.80168246  0.69360824  0.03290348    -0.20200
F1791       F  0.75538069  0.68486005  0.07962726    -0.20500
F1792       F  0.78376408  0.74334945  0.06887937    -0.23200
C1793       C  0.79148525  0.95726580  0.98804666    -0.06100
C1794       C  0.81157250  0.95042639  0.02203626    -0.00100
C1795       C  0.79602879  0.92363631  0.05012254    -0.08700
C1796       C  0.76203618  0.90228087  0.04197522    -0.06100
C1797       C  0.74363688  0.90663320  0.00655643    -0.00100
C1798       C  0.75796500  0.93528871  0.97951096    -0.08600
C1799       C  0.74019813  0.93981373  0.94041706     0.61800
H1800       H  0.80421011  0.97770878  0.96676962     0.12500
H1801       H  0.75136546  0.87982918  0.06205501     0.12500
C1802       C  0.81717293  0.91542131  0.08699557     0.62000
F1803       F  0.75926987  0.96807192  0.91747691    -0.23200
F1804       F  0.70216214  0.95040139  0.94481076    -0.20500
F1805       F  0.74213206  0.90483380  0.92181382    -0.20200
F1806       F  0.82504795  0.94993058  0.10525609    -0.20200
F1807       F  0.85154933  0.89757144  0.07836217    -0.20500
F1808       F  0.79548238  0.89129009  0.11228689    -0.23200
C1809       C  0.25027822  0.71139557  0.97060506    -0.06100
C1810       C  0.26965396  0.68631417  0.99523777    -0.00100
C1811       C  0.30091434  0.70087584  0.01658857    -0.08700
C1812       C  0.30855036  0.74100598  0.01604673    -0.06100
C1813       C  0.28568395  0.76723157  0.99566329    -0.00100
C1814       C  0.25863225  0.75159252  0.96899535    -0.08600
C1815       C  0.23754343  0.77414282  0.93785652     0.61800
H1816       H  0.22829202  0.69934894  0.95221487     0.12500
H1817       H  0.33283240  0.75172999  0.03183289     0.12500
C1818       C  0.32634265  0.67445169  0.04004357     0.62000
F1819       F  0.24468096  0.75735392  0.90266887    -0.23200
F1820       F  0.24853091  0.81282573  0.93359327    -0.20500
F1821       F  0.19812204  0.77167029  0.94582988    -0.20200
F1822       F  0.33691905  0.64303214  0.01866629    -0.20200
F1823       F  0.30631748  0.66150307  0.07304346    -0.20500
F1824       F  0.36005441  0.69340890  0.05087548    -0.23200
C1825       C  0.19176882  0.87323405  0.04950246    -0.06100
C1826       C  0.21791573  0.89058316  0.02160685    -0.00100
C1827       C  0.20613869  0.92310214  0.99973008    -0.08700
C1828       C  0.16852026  0.93618507  0.00595796    -0.06100
C1829       C  0.14115419  0.91682326  0.03118740    -0.00100
C1830       C  0.15323086  0.88523062  0.05417111    -0.08600
C1831       C  0.12557705  0.86326840  0.08205374     0.61800
H1832       H  0.20134496  0.84861913  0.06641681     0.12500
H1833       H  0.15950062  0.96129299  0.98945893     0.12500
C1834       C  0.23168252  0.94286933  0.96827029     0.62000
F1835       F  0.14232527  0.83101058  0.09857854    -0.23200
F1836       F  0.09299083  0.85069880  0.06317968    -0.20500
F1837       F  0.11475688  0.88739853  0.11125788    -0.20200
F1838       F  0.24661924  0.91551935  0.94393600    -0.20200
F1839       F  0.26148669  0.96364895  0.98462490    -0.20500
F1840       F  0.21132064  0.96872699  0.94590745    -0.23200
C1841       C  0.29258183  0.98677062  0.29885210    -0.06100
C1842       C  0.30824718  0.00753376  0.26663461    -0.00100
C1843       C  0.28483087  0.03391206  0.24677045    -0.08700
C1844       C  0.24707124  0.03964273  0.26078506    -0.06100
C1845       C  0.22991162  0.01740737  0.29187302    -0.00100
C1846       C  0.25468838  0.99264012  0.31319686    -0.08600
C1847       C  0.24441938  0.97331532  0.35210896     0.61800
H1848       H  0.31112893  0.96745183  0.31456495     0.12500
H1849       H  0.23111202  0.06250796  0.24716217     0.12500
C1850       C  0.29915203  0.05699249  0.21109562     0.62000
F1851       F  0.27499936  0.97809953  0.37663666    -0.23200
F1852       F  0.23769348  0.93389231  0.34750940    -0.20500
F1853       F  0.21275514  0.98906814  0.37008014    -0.20200
F1854       F  0.32515834  0.03619711  0.18940844    -0.20200
F1855       F  0.31672888  0.09135660  0.22224960    -0.20500
F1856       F  0.26869379  0.06566136  0.18753958    -0.23200
C1857       C  0.69927290  0.03196135  0.24888340    -0.06100
C1858       C  0.67178485  0.00901179  0.27015869    -0.00100
C1859       C  0.68290913  0.99227853  0.30575888    -0.08700
C1860       C  0.72164023  0.99650240  0.31713870    -0.06100
C1861       C  0.75041701  0.01664646  0.29432838    -0.00100
C1862       C  0.73765495  0.03790324  0.26110755    -0.08600
C1863       C  0.76199378  0.06816417  0.23779674     0.61800
H1864       H  0.69029113  0.04652213  0.22278914     0.12500
H1865       H  0.72930562  0.98418311  0.34464553     0.12500
C1866       C  0.65377319  0.97059250  0.33228276     0.62000
F1867       F  0.74022180  0.10059637  0.23065847    -0.23200
F1868       F  0.77302261  0.05300891  0.20279851    -0.20500
F1869       F  0.79443718  0.08092571  0.25655611    -0.20200
F1870       F  0.64218019  0.93633104  0.31550968    -0.20200
F1871       F  0.62208944  0.99343311  0.33871637    -0.20500
F1872       F  0.66907324  0.96130052  0.36767886    -0.23200
C1873       C  0.41709279  0.86610452  0.38226030    -0.06100
C1874       C  0.40723022  0.90549294  0.37978320    -0.00100
C1875       C  0.37907318  0.91975664  0.40540066    -0.08700
C1876       C  0.35965425  0.89336476  0.43101324    -0.06100
C1877       C  0.37102754  0.85462179  0.43561827    -0.00100
C1878       C  0.39998320  0.84038942  0.41060641    -0.08600
C1879       C  0.41082162  0.79796081  0.41220727     0.61800
H1880       H  0.43842970  0.85575894  0.36187969     0.12500
H1881       H  0.33593016  0.90323149  0.44880703     0.12500
C1882       C  0.37022530  0.96275763  0.40627533     0.62000
F1883       F  0.43846469  0.78988655  0.38421405    -0.23200
F1884       F  0.37832042  0.77468584  0.40643547    -0.20500
F1885       F  0.42571892  0.78853818  0.44762992    -0.20200
F1886       F  0.36027425  0.97613493  0.37010873    -0.20200
F1887       F  0.40260398  0.98344708  0.41782819    -0.20500
F1888       F  0.34007778  0.97003599  0.43184039    -0.23200
C1889       C  0.59534490  0.85210359  0.40664102    -0.06100
C1890       C  0.61402615  0.87392742  0.43469600    -0.00100
C1891       C  0.61096786  0.91493604  0.43382204    -0.08700
C1892       C  0.58979952  0.93268945  0.40472548    -0.06100
C1893       C  0.57296052  0.91122420  0.37556909    -0.00100
C1894       C  0.57524712  0.87007533  0.37650854    -0.08600
C1895       C  0.55595288  0.84516324  0.34655291     0.61800
H1896       H  0.59691021  0.82077344  0.40829519     0.12500
H1897       H  0.58720613  0.96400017  0.40380717     0.12500
C1898       C  0.62975439  0.94010147  0.46339099     0.62000
F1899       F  0.55588341  0.80600025  0.35679745    -0.23200
F1900       F  0.57558859  0.85010767  0.31151468    -0.20500
F1901       F  0.51790956  0.85564975  0.34252525    -0.20200
F1902       F  0.66920535  0.93505362  0.46184666    -0.20200
F1903       F  0.61448298  0.92973454  0.49939574    -0.20500
F1904       F  0.62346156  0.97930267  0.45699601    -0.23200
C1905       C  0.41545303  0.10270023  0.40781942    -0.06100
C1906       C  0.39938572  0.10334965  0.37119335    -0.00100
C1907       C  0.36725332  0.12752937  0.36505242    -0.08700
C1908       C  0.35318634  0.14975000  0.39586578    -0.06100
C1909       C  0.36892370  0.14887879  0.43312835    -0.00100
C1910       C  0.40247388  0.12578741  0.43827496    -0.08600
C1911       C  0.42736201  0.12611607  0.47371327     0.61800
H1912       H  0.44021581  0.08477652  0.41201352     0.12500
H1913       H  0.32987023  0.16915743  0.39031404     0.12500
C1914       C  0.34715375  0.13021953  0.32659354     0.62000
F1915       F  0.45602612  0.09880524  0.47254053    -0.23200
F1916       F  0.40517872  0.11746462  0.50636855    -0.20500
F1917       F  0.44608007  0.16202369  0.47581113    -0.20200
F1918       F  0.33714875  0.09337815  0.31442056    -0.20200
F1919       F  0.37144310  0.14898100  0.29938382    -0.20500
F1920       F  0.31345860  0.15097029  0.32900929    -0.23200
C1921       C  0.51395553  0.21225127  0.24262302    -0.06100
C1922       C  0.49374928  0.18737762  0.21882869    -0.00100
C1923       C  0.47525812  0.20270648  0.18629039    -0.08700
C1924       C  0.47435488  0.24321363  0.18098434    -0.06100
C1925       C  0.49168369  0.26911960  0.20677562    -0.00100
C1926       C  0.51455885  0.25276227  0.23690010    -0.08600
C1927       C  0.54093721  0.27439144  0.26433809     0.61800
H1928       H  0.52985646  0.19970506  0.26614304     0.12500
H1929       H  0.46051747  0.25419858  0.15580368     0.12500
C1930       C  0.45731446  0.17637694  0.15672756     0.62000
F1931       F  0.57764206  0.25950843  0.26141329    -0.23200
F1932       F  0.52700016  0.26814222  0.30174557    -0.20500
F1933       F  0.54509354  0.31378072  0.25772148    -0.20200
F1934       F  0.42488625  0.15746793  0.17283047    -0.20200
F1935       F  0.48377896  0.14933632  0.14502103    -0.20500
F1936       F  0.44608799  0.19691986  0.12429165    -0.23200
C1937       C  0.52066348  0.80280474  0.23367345    -0.06100
C1938       C  0.48532528  0.82195356  0.23297528    -0.00100
C1939       C  0.45118929  0.79909669  0.22604380    -0.08700
C1940       C  0.45514470  0.76052331  0.21360458    -0.06100
C1941       C  0.49110336  0.74216231  0.21174599    -0.00100
C1942       C  0.52349126  0.76275008  0.22729189    -0.08600
C1943       C  0.56136403  0.74505388  0.23963472     0.61800
H1944       H  0.54654934  0.81884827  0.24163030     0.12500
H1945       H  0.42938211  0.74380695  0.20712873     0.12500
C1946       C  0.41054250  0.81373820  0.23344220     0.62000
F1947       F  0.57188216  0.76002299  0.27465796    -0.23200
F1948       F  0.59022889  0.75471482  0.21255766    -0.20500
F1949       F  0.55938837  0.70529700  0.24500161    -0.20200
F1950       F  0.40258373  0.84344104  0.20759453    -0.20200
F1951       F  0.40733590  0.82682773  0.27072453    -0.20500
F1952       F  0.38242108  0.78470097  0.22971936    -0.23200
C1953       C  0.65491475  0.10209237  0.07768788    -0.06100
C1954       C  0.63674606  0.12385131  0.04898669    -0.00100
C1955       C  0.59574127  0.12734807  0.05122744    -0.08700
C1956       C  0.57480270  0.10900411  0.08203415    -0.06100
C1957       C  0.59294272  0.08840486  0.11126289    -0.00100
C1958       C  0.63375171  0.08469218  0.10926833    -0.08600
C1959       C  0.65484898  0.06271847  0.14037917     0.61800
H1960       H  0.68614690  0.10039421  0.07609398     0.12500
H1961       H  0.54363786  0.11177490  0.08388175     0.12500
C1962       C  0.57177580  0.15030649  0.02307430     0.62000
F1963       F  0.69394282  0.06012580  0.13152144    -0.23200
F1964       F  0.63925592  0.02534500  0.14488224    -0.20500
F1965       F  0.65125283  0.08182381  0.17474855    -0.20200
F1966       F  0.59271882  0.16618580  0.99214654    -0.20200
F1967       F  0.55437241  0.18022393  0.04225256    -0.20500
F1968       F  0.54321261  0.12605830  0.00885047    -0.23200
C1969       C  0.60203551  0.90508893  0.04918412    -0.06100
C1970       C  0.62815891  0.87703412  0.06093928    -0.00100
C1971       C  0.63325907  0.87014815  0.10092729    -0.08700
C1972       C  0.61024430  0.89026146  0.12732516    -0.06100
C1973       C  0.58392476  0.91850976  0.11562897    -0.00100
C1974       C  0.58065295  0.92697105  0.07533595    -0.08600
C1975       C  0.55664518  0.95980508  0.05894456     0.61800
H1976       H  0.59922687  0.91058248  0.01865698     0.12500
H1977       H  0.61307539  0.88389257  0.15777232     0.12500
C1978       C  0.66336600  0.84296612  0.11657142     0.62000
F1979       F  0.56093640  0.96390762  0.01926317    -0.23200
F1980       F  0.56839993  0.99475733  0.07435616    -0.20500
F1981       F  0.51773891  0.95267665  0.06703857    -0.20200
F1982       F  0.69795796  0.84814904  0.09620901    -0.20200
F1983       F  0.65035288  0.80481442  0.11417512    -0.20500
F1984       F  0.67075533  0.84988336  0.15484323    -0.23200
C1985       C  0.37664594  0.86526367  0.07925282    -0.06100
C1986       C  0.33895125  0.87915418  0.07548562    -0.00100
C1987       C  0.32628389  0.90902363  0.09974743    -0.08700
C1988       C  0.35330769  0.92693044  0.12366023    -0.06100
C1989       C  0.39167501  0.91496445  0.12507960    -0.00100
C1990       C  0.40341099  0.88276722  0.10370503    -0.08600
C1991       C  0.44365307  0.86670159  0.10710450     0.61800
H1992       H  0.38556613  0.84154357  0.06145178     0.12500
H1993       H  0.34456668  0.95053374  0.14175205     0.12500
C1994       C  0.28411766  0.91998101  0.10310917     0.62000
F1995       F  0.44872762  0.83464999  0.08435226    -0.23200
F1996       F  0.44982599  0.85548633  0.14486527    -0.20500
F1997       F  0.47107749  0.89485990  0.09571643    -0.20200
F1998       F  0.26060909  0.88675774  0.10454119    -0.20200
F1999       F  0.27443619  0.94346184  0.07226767    -0.20500
F2000       F  0.27676092  0.94012483  0.13640956    -0.23200
C2001       C  0.36031892  0.11019042  0.12878059    -0.06100
C2002       C  0.39279553  0.08974749  0.11561734    -0.00100
C2003       C  0.39990139  0.08788701  0.07504395    -0.08700
C2004       C  0.37373761  0.10540128  0.05001603    -0.06100
C2005       C  0.34235477  0.12665540  0.06342965    -0.00100
C2006       C  0.33509089  0.12882482  0.10360218    -0.08600
C2007       C  0.30065407  0.14995845  0.12035318     0.61800
H2008       H  0.35481592  0.11221858  0.15940673     0.12500
H2009       H  0.37813472  0.10322895  0.01922851     0.12500
C2010       C  0.43506557  0.06867452  0.05740294     0.62000
F2011       F  0.29252261  0.13843180  0.15818248    -0.23200
F2012       F  0.26784642  0.14228366  0.09952876    -0.20500
F2013       F  0.30854700  0.18954961  0.11991840    -0.20200
F2014       F  0.43299626  0.02903465  0.06524859    -0.20200
F2015       F  0.46855519  0.08472247  0.07209606    -0.20500
F2016       F  0.43752363  0.07399811  0.01773600    -0.23200
C2017       C  0.75051202  0.24805304  0.47314748    -0.06100
C2018       C  0.73423070  0.21497605  0.49313997    -0.00100
C2019       C  0.75928447  0.19276394  0.51658579    -0.08700
C2020       C  0.79612568  0.20860877  0.52478210    -0.06100
C2021       C  0.81087201  0.24292217  0.50655789    -0.00100
C2022       C  0.78760577  0.26319958  0.48030182    -0.08600
C2023       C  0.80123734  0.30126244  0.46030329     0.61800
H2024       H  0.73369823  0.26254807  0.45155976     0.12500
H2025       H  0.81511573  0.19201325  0.54289226     0.12500
C2026       C  0.75166373  0.15057450  0.52926450     0.62000
F2027       F  0.77081824  0.32076452  0.44428410    -0.23200
F2028       F  0.82761884  0.29410174  0.43096172    -0.20500
F2029       F  0.81821801  0.32559070  0.48657073    -0.20200
F2030       F  0.72253958  0.13289588  0.50905543    -0.20200
F2031       F  0.74256279  0.14843220  0.56827360    -0.20500
F2032       F  0.78456749  0.12942565  0.52263743    -0.23200
C2033       C  0.61522284  0.09541187  0.37807095    -0.06100
C2034       C  0.57887145  0.10714476  0.36671601    -0.00100
C2035       C  0.56487217  0.14308466  0.37872163    -0.08700
C2036       C  0.58817927  0.16642146  0.40202671    -0.06100
C2037       C  0.62408342  0.15415132  0.41559497    -0.00100
C2038       C  0.63832786  0.11783271  0.40254168    -0.08600
C2039       C  0.67724529  0.10166163  0.41328874     0.61800
H2040       H  0.62550504  0.06827311  0.36708535     0.12500
H2041       H  0.57784386  0.19440907  0.41050905     0.12500
C2042       C  0.52504675  0.15612646  0.36757053     0.62000
F2043       F  0.68063011  0.06328320  0.40275985    -0.23200
F2044       F  0.68207900  0.10254605  0.45254036    -0.20500
F2045       F  0.70667369  0.12291000  0.39421290    -0.20200
F2046       F  0.49744850  0.12914375  0.38143349    -0.20200
F2047       F  0.52300002  0.15905221  0.32795300    -0.20500
F2048       F  0.51642515  0.19188742  0.38255416    -0.23200
C2049       C  0.57168062  0.27814988  0.48979413    -0.06100
C2050       C  0.60660009  0.27538260  0.46937302    -0.00100
C2051       C  0.62053241  0.30817004  0.44641165    -0.08700
C2052       C  0.60232640  0.34416833  0.44989308    -0.06100
C2053       C  0.56891311  0.34780999  0.47291370    -0.00100
C2054       C  0.55198218  0.31329545  0.49099807    -0.08600
C2055       C  0.51230548  0.31261589  0.51004846     0.61800
H2056       H  0.56061294  0.25297826  0.50642718     0.12500
H2057       H  0.61462310  0.36973913  0.43472597     0.12500
C2058       C  0.65429372  0.30681167  0.41779709     0.62000
F2059       F  0.49646553  0.27520280  0.51394808    -0.23200
F2060       F  0.48847750  0.33385462  0.48702770    -0.20500
F2061       F  0.51407411  0.32819558  0.54627689    -0.20200
F2062       F  0.66306415  0.26921461  0.40835699    -0.20200
F2063       F  0.68641327  0.32499156  0.43298216    -0.20500
F2064       F  0.64522845  0.32629316  0.38399649    -0.23200
C2065       C  0.29547504  0.01032283  0.69321265    -0.06100
C2066       C  0.30562319  0.00003856  0.73093905    -0.00100
C2067       C  0.27608980  0.98494688  0.75669733    -0.08700
C2068       C  0.23737668  0.98425502  0.74477899    -0.06100
C2069       C  0.22641501  0.99790676  0.70802235    -0.00100
C2070       C  0.25706799  0.00668724  0.68040569    -0.08600
C2071       C  0.25236185  0.01017731  0.63700976     0.61800
H2072       H  0.31839591  0.01931272  0.67268669     0.12500
H2073       H  0.21547398  0.97246774  0.76494756     0.12500
C2074       C  0.28290079  0.96985217  0.79728597     0.62000
F2075       F  0.21672872  0.99698844  0.62496163    -0.23200
F2076       F  0.27970618  0.98795729  0.61873763    -0.20500
F2077       F  0.25839490  0.04855917  0.62509474    -0.20200
F2078       F  0.26121686  0.99077766  0.82308856    -0.20200
F2079       F  0.32109113  0.97275831  0.80757592    -0.20500
F2080       F  0.27091799  0.93115609  0.80040593    -0.23200
C2081       C  0.68219207  0.00462011  0.69123283    -0.06100
C2082       C  0.67000764  0.02179879  0.72541421    -0.00100
C2083       C  0.69745082  0.04152838  0.74790263    -0.08700
C2084       C  0.73691252  0.03771692  0.73834142    -0.06100
C2085       C  0.74952368  0.01638839  0.70628152    -0.00100
C2086       C  0.72125901  0.00534842  0.67937645    -0.08600
C2087       C  0.72965770  0.99860768  0.63707578     0.61800
H2088       H  0.66056911  0.99296207  0.67220475     0.12500
H2089       H  0.75824947  0.05195666  0.75577973     0.12500
C2090       C  0.68552391  0.06684701  0.78120399     0.62000
F2091       F  0.70304666  0.01794609  0.61508253    -0.23200
F2092       F  0.72661121  0.95935977  0.63017409    -0.20500
F2093       F  0.76566270  0.01275884  0.62490091    -0.20200
F2094       F  0.66059727  0.04653579  0.80652449    -0.20200
F2095       F  0.66714950  0.09916365  0.76704752    -0.20500
F2096       F  0.71708411  0.07957436  0.80170980    -0.23200
C2097       C  0.38646832  0.16359642  0.58702580    -0.06100
C2098       C  0.35719296  0.14497879  0.56648400    -0.00100
C2099       C  0.34924259  0.10452935  0.57285830    -0.08700
C2100       C  0.37023976  0.08449715  0.60077381    -0.06100
C2101       C  0.39883337  0.10345555  0.62168512    -0.00100
C2102       C  0.40761246  0.14342714  0.61468472    -0.08600
C2103       C  0.44004749  0.16417930  0.63543928     0.61800
H2104       H  0.39300846  0.19407880  0.58082027     0.12500
H2105       H  0.36433832  0.05379612  0.60676297     0.12500
C2106       C  0.31980294  0.08211829  0.54972656     0.62000
F2107       F  0.44584357  0.20222903  0.62212193    -0.23200
F2108       F  0.47422186  0.14490344  0.62975373    -0.20500
F2109       F  0.43125132  0.16485921  0.67445755    -0.20200
F2110       F  0.32589540  0.08981686  0.51073253    -0.20200
F2111       F  0.28304926  0.09268192  0.56061631    -0.20500
F2112       F  0.32204447  0.04232251  0.55585914    -0.23200
C2113       C  0.56601177  0.10172471  0.57290603    -0.06100
C2114       C  0.56991964  0.11389366  0.61108112    -0.00100
C2115       C  0.58977739  0.15018438  0.61689540    -0.08700
C2116       C  0.60674394  0.17086771  0.58486212    -0.06100
C2117       C  0.60423642  0.15777066  0.54705039    -0.00100
C2118       C  0.58227830  0.12293122  0.54079733    -0.08600
C2119       C  0.57679655  0.10673852  0.50101399     0.61800
H2120       H  0.55027155  0.07472511  0.56820141     0.12500
H2121       H  0.62308458  0.19766440  0.58916875     0.12500
C2122       C  0.59285788  0.16810487  0.65625579     0.62000
F2123       F  0.55633693  0.07150044  0.50218915    -0.23200
F2124       F  0.61237637  0.10065342  0.48394990    -0.20500
F2125       F  0.55625320  0.13221082  0.47873464    -0.20200
F2126       F  0.61566428  0.14566245  0.67963972    -0.20200
F2127       F  0.55628956  0.17071506  0.67269848    -0.20500
F2128       F  0.60925774  0.20531938  0.65411147    -0.23200
C2129       C  0.60698499  0.92370051  0.60516587    -0.06100
C2130       C  0.57099682  0.91030687  0.61963111    -0.00100
C2131       C  0.55661584  0.87323312  0.60899819    -0.08700
C2132       C  0.57746071  0.85241746  0.58100455    -0.06100
C2133       C  0.61374029  0.86593636  0.56597362    -0.00100
C2134       C  0.62929586  0.90202904  0.57945397    -0.08600
C2135       C  0.66967446  0.91815340  0.56915440     0.61800
H2136       H  0.61828606  0.95107690  0.61563703     0.12500
H2137       H  0.56604285  0.82476386  0.57147024     0.12500
C2138       C  0.52020804  0.85539290  0.62815943     0.62000
F2139       F  0.67275708  0.95766870  0.57527438    -0.23200
F2140       F  0.67904503  0.91333394  0.53107251    -0.20500
F2141       F  0.69621773  0.89963326  0.59173088    -0.20200
F2142       F  0.48922894  0.87858647  0.62069965    -0.20200
F2143       F  0.52489729  0.85246736  0.66756159    -0.20500
F2144       F  0.51183917  0.81848429  0.61503299    -0.23200
C2145       C  0.35970730  0.85596960  0.60360667    -0.06100
C2146       C  0.36939761  0.86522166  0.56488661    -0.00100
C2147       C  0.39703594  0.89568217  0.55638831    -0.08700
C2148       C  0.41478902  0.91448821  0.58679729    -0.06100
C2149       C  0.40486913  0.90583810  0.62557309    -0.00100
C2150       C  0.37737855  0.87492962  0.63433573    -0.08600
C2151       C  0.36633337  0.86133991  0.67534562     0.61800
H2152       H  0.33764661  0.83352350  0.60958813     0.12500
H2153       H  0.43605641  0.93745058  0.58008148     0.12500
C2154       C  0.40469551  0.91210374  0.51608012     0.62000
F2155       F  0.34034972  0.82993472  0.67627964    -0.23200
F2156       F  0.34913665  0.89109140  0.69496705    -0.20500
F2157       F  0.39895878  0.84965483  0.69421434    -0.20200
F2158       F  0.37037348  0.92554717  0.50243995    -0.20200
F2159       F  0.41944437  0.88411009  0.49267997    -0.20500
F2160       F  0.43111385  0.94317754  0.51485044    -0.23200
C2161       C  0.50723642  0.22066859  0.74207407    -0.06100
C2162       C  0.48714934  0.19356810  0.76647526    -0.00100
C2163       C  0.47434301  0.20571400  0.80316352    -0.08700
C2164       C  0.48002295  0.24489758  0.81307821    -0.06100
C2165       C  0.49793550  0.27311295  0.78780278    -0.00100
C2166       C  0.51508547  0.25941768  0.75280545    -0.08600
C2167       C  0.54351479  0.28268619  0.72644049     0.61800
H2168       H  0.51852460  0.21091516  0.71479807     0.12500
H2169       H  0.47125193  0.25335006  0.84162630     0.12500
C2170       C  0.45615826  0.17705481  0.83261106     0.62000
F2171       F  0.57369637  0.25941759  0.71542423    -0.23200
F2172       F  0.55997604  0.31439942  0.74390551    -0.20500
F2173       F  0.52498867  0.29489900  0.69365275    -0.20200
F2174       F  0.48177838  0.14790189  0.84027253    -0.20200
F2175       F  0.42236017  0.16118903  0.81858169    -0.20500
F2176       F  0.44705643  0.19454883  0.86696862    -0.23200
C2177       C  0.52126809  0.77608038  0.81326956    -0.06100
C2178       C  0.49414795  0.74912122  0.79913998    -0.00100
C2179       C  0.46418734  0.76389100  0.77518698    -0.08700
C2180       C  0.46630791  0.80328162  0.76302095    -0.06100
C2181       C  0.49465855  0.82918747  0.77585960    -0.00100
C2182       C  0.52138810  0.81575015  0.80312788    -0.08600
C2183       C  0.54858706  0.84325492  0.82353456     0.61800
H2184       H  0.54342625  0.76657770  0.83199713     0.12500
H2185       H  0.44485419  0.81474414  0.74402615     0.12500
C2186       C  0.42795576  0.74049304  0.76442151     0.62000
F2187       F  0.56728017  0.82507451  0.85353340    -0.23200
F2188       F  0.52722908  0.87265016  0.83895177    -0.20500
F2189       F  0.57667876  0.85848147  0.79797437    -0.20200
F2190       F  0.40416464  0.73455320  0.79669996    -0.20200
F2191       F  0.43677116  0.70521591  0.74923643    -0.20500
F2192       F  0.40669064  0.75992204  0.73710033    -0.23200
C2193       C  0.41181248  0.11522069  0.90316946    -0.06100
C2194       C  0.39230419  0.08929261  0.87939904    -0.00100
C2195       C  0.35198064  0.08234403  0.88480599    -0.08700
C2196       C  0.33230127  0.10284320  0.91328971    -0.06100
C2197       C  0.35126058  0.13102610  0.93495834    -0.00100
C2198       C  0.39180042  0.13732654  0.93025269    -0.08600
C2199       C  0.41387768  0.16804604  0.95223744     0.61800
H2200       H  0.44279986  0.11931362  0.89908357     0.12500
H2201       H  0.30162397  0.09737179  0.91856563     0.12500
C2202       C  0.33005712  0.05253624  0.86167176     0.62000
F2203       F  0.45352240  0.16413750  0.94830041    -0.23200
F2204       F  0.40433799  0.16550859  0.99106728    -0.20500
F2205       F  0.40497414  0.20443543  0.93799021    -0.20200
F2206       F  0.34713853  0.01685970  0.86565708    -0.20200
F2207       F  0.33056885  0.06394402  0.82322328    -0.20500
F2208       F  0.29173896  0.04818348  0.87401507    -0.23200
C2209       C  0.38896017  0.94076589  0.91751594    -0.06100
C2210       C  0.38626628  0.92554982  0.88046374    -0.00100
C2211       C  0.35830126  0.89519264  0.87462179    -0.08700
C2212       C  0.33319620  0.88343817  0.90552561    -0.06100
C2213       C  0.33824858  0.89585858  0.94351268    -0.00100
C2214       C  0.36724862  0.92529414  0.94953482    -0.08600
C2215       C  0.37856443  0.93857947  0.98907702     0.61800
H2216       H  0.40968726  0.96432002  0.92171136     0.12500
H2217       H  0.31038163  0.86210532  0.90054869     0.12500
C2218       C  0.35599634  0.87286760  0.83728631     0.62000
F2219       F  0.41115076  0.96301363  0.98766363    -0.23200
F2220       F  0.38729321  0.90656086  0.01125200    -0.20500
F2221       F  0.34916441  0.95878481  0.00617253    -0.20200
F2222       F  0.39213537  0.85943703  0.82722073    -0.20200
F2223       F  0.34283843  0.89639470  0.80790701    -0.20500
F2224       F  0.33096486  0.84074870  0.84090921    -0.23200
C2225       C  0.57041266  0.90855854  0.90488834    -0.06100
C2226       C  0.58986592  0.92627619  0.87283195    -0.00100
C2227       C  0.63053250  0.92216306  0.86864897    -0.08700
C2228       C  0.65010237  0.90181498  0.89756333    -0.06100
C2229       C  0.63079964  0.88507604  0.93011171    -0.00100
C2230       C  0.58973051  0.88625391  0.93247550    -0.08600
C2231       C  0.56407089  0.86233291  0.96076660     0.61800
H2232       H  0.53915327  0.91011483  0.90720560     0.12500
H2233       H  0.68074309  0.89772194  0.89419889     0.12500
C2234       C  0.65359581  0.93907278  0.83412335     0.62000
F2235       F  0.54073027  0.83734965  0.94030500    -0.23200
F2236       F  0.54062263  0.88668636  0.98141598    -0.20500
F2237       F  0.58435904  0.84010325  0.98636138    -0.20200
F2238       F  0.64303184  0.97682520  0.82683140    -0.20200
F2239       F  0.64661608  0.91700474  0.80217299    -0.20500
F2240       F  0.69302644  0.93967034  0.84027034    -0.23200
C2241       C  0.61463405  0.10389658  0.93493680    -0.06100
C2242       C  0.64126357  0.13284296  0.92155780    -0.00100
C2243       C  0.64308457  0.14321245  0.88178314    -0.08700
C2244       C  0.61637750  0.12558855  0.85736206    -0.06100
C2245       C  0.58888708  0.09689801  0.87065782    -0.00100
C2246       C  0.58800667  0.08589309  0.91069396    -0.08600
C2247       C  0.55909863  0.05611566  0.92890678     0.61800
H2248       H  0.61380457  0.09651180  0.96541212     0.12500
H2249       H  0.61749167  0.13435114  0.82716184     0.12500
C2250       C  0.67242062  0.17233807  0.86340920     0.62000
F2251       F  0.56393434  0.05096106  0.96815125    -0.23200
F2252       F  0.56376497  0.02031323  0.91245340    -0.20500
F2253       F  0.52177095  0.06846892  0.92393667    -0.20200
F2254       F  0.70388897  0.17950204  0.88617141    -0.20200
F2255       F  0.65439115  0.20697338  0.85585944    -0.20500
F2256       F  0.68664825  0.15829422  0.82900884    -0.23200
loop_ 
_geom_bond_atom_site_label_1 
_geom_bond_atom_site_label_2 
_geom_bond_distance 
_geom_bond_site_symmetry_2 
_ccdc_geom_bond_type 
O1           C12   1.286       .  A
O1          Eu37   2.446       .  S
O2           C13   1.295       .  A
O2          Eu36   2.471       .  S
O3           C14   1.288       .  A
O3           Eu9   2.448       .  S
O4           C15   1.292       .  A
O4           Eu9   2.464       .  S
O5           C15   1.298       .  A
O5          Eu39   2.502       .  S
O6           C14   1.293   1_565  A
O6          Eu38   2.466       .  S
O7           C13   1.290       .  A
O7           Eu9   2.471       .  S
O8           C12   1.293       .  A
O8           Eu9   2.464       .  S
Eu9          O19   2.358       .  S
Eu9          O11   2.351       .  S
Eu9          O10   2.347       .  S
Eu9          O17   2.367       .  S
O10         Eu39   2.359       .  S
O10         Eu36   2.365       .  S
O11         Eu37   2.352       .  S
O11         Eu38   2.341   1_545  S
C12        C2245   1.501       .  S
C13        C2114   1.513       .  S
C14        C2082   1.472       .  S
C15        C2162   1.495       .  S
H16          O17   0.966       .  S
O17         Eu38   2.361   1_545  S
O17         Eu36   2.346       .  S
H18          O19   0.964       .  S
O19         Eu37   2.349       .  S
O19         Eu39   2.356       .  S
O20          C43   1.293       .  A
O20         Eu36   2.456   1_565  S
O21          C44   1.295       .  A
O21         Eu37   2.473   1_565  S
O22          C45   1.289       .  A
O22         Eu38   2.455       .  S
O23          C46   1.288       .  A
O23         Eu39   2.440       .  S
O24          C47   1.291       .  A
O24         Eu39   2.462       .  S
O25          C48   1.289       .  A
O25         Eu38   2.451       .  S
O26          C49   1.295       .  A
O26         Eu40   2.476       .  S
O27          C50   1.295   1_565  A
O27         Eu40   2.485       .  S
O28          C49   1.288       .  A
O28         Eu38   2.450       .  S
O29          C50   1.297       .  A
O29         Eu39   2.498       .  S
O30          C45   1.296       .  A
O30         Eu36   2.491   1_565  S
O31          C48   1.295       .  A
O31         Eu37   2.479   1_565  S
O32          C47   1.289       .  A
O32         Eu37   2.448       .  S
O33          C46   1.292       .  A
O33         Eu36   2.463       .  S
O34          C43   1.282       .  A
O34         Eu40   2.426       .  S
O35          C44   1.284       .  A
O35         Eu40   2.436       .  S
Eu36         O54   2.348       .  S
Eu36         O42   2.346   1_545  S
Eu37         O41   2.356       .  S
Eu37         O52   2.326   1_545  S
Eu38         O52   2.364       .  S
Eu38         O42   2.343       .  S
Eu39         O41   2.349       .  S
Eu39         O54   2.363       .  S
Eu40         O41   2.344   1_565  S
Eu40         O52   2.358       .  S
Eu40         O54   2.355   1_565  S
Eu40         O42   2.350       .  S
C43        C2149   1.495       .  S
C44        C2210   1.500       .  S
C45        C2130   1.483       .  S
C46        C2101   1.465       .  S
C47        C2194   1.473       .  S
C48        C2226   1.492       .  S
C49        C2181   1.486       .  S
C50        C2066   1.495       .  S
H51          O52   0.964       .  S
H53          O54   0.965       .  S
C55          C56   1.540       .  S
C55          C61   1.534       .  S
C55          C59   1.542       .  S
C55        C2018   1.546       .  S
C56          H63   1.082       .  S
C56          C57   1.370       .  D
C57          C58   1.550       .  S
C57        C2117   1.508       .  S
C58          C62   1.553       .  S
C58          C60   1.552       .  S
C58          H64   1.104       .  S
C59          H65   1.077       .  S
C59          C60   1.374       .  D
C60        C2037   1.511       .  S
C61          H66   1.085       .  S
C61          C62   1.352       .  D
C62        C2050   1.497       .  S
O67          C78   1.294       .  A
O67        Eu103   2.477       .  S
O68          C79   1.295       .  A
O68        Eu102   2.478       .  S
O69          C80   1.293       .  A
O69         Eu75   2.475       .  S
O70          C81   1.291       .  A
O70         Eu75   2.456       .  S
O71          C81   1.287       .  A
O71        Eu105   2.441       .  S
O72          C80   1.296   1_565  A
O72        Eu104   2.492       .  S
O73          C79   1.290       .  A
O73         Eu75   2.458       .  S
O74          C78   1.289       .  A
O74         Eu75   2.452       .  S
Eu75         O85   2.360       .  S
Eu75         O77   2.348       .  S
Eu75         O76   2.359       .  S
Eu75         O83   2.350       .  S
O76        Eu105   2.353       .  S
O76        Eu102   2.345       .  S
O77        Eu103   2.356       .  S
O77        Eu104   2.357   1_545  S
C78        C2034   1.474       .  S
C79        C1957   1.484       .  S
C80        C1858   1.500       .  S
C81        C1922   1.470       .  S
H82          O83   0.965       .  S
O83        Eu104   2.346   1_545  S
O83        Eu102   2.370       .  S
H84          O85   0.966       .  S
O85        Eu103   2.359       .  S
O85        Eu105   2.350       .  S
O86         C109   1.294       .  A
O86        Eu102   2.478   1_565  S
O87         C110   1.292       .  A
O87        Eu103   2.463   1_565  S
O88         C111   1.295       .  A
O88        Eu104   2.472       .  S
O89         C112   1.291       .  A
O89        Eu105   2.454       .  S
O90         C113   1.288       .  A
O90        Eu105   2.453       .  S
O91         C114   1.289       .  A
O91        Eu104   2.451       .  S
O92         C115   1.287       .  A
O92        Eu106   2.456       .  S
O93         C116   1.293   1_565  A
O93        Eu106   2.476       .  S
O94         C115   1.296       .  A
O94        Eu104   2.479       .  S
O95         C116   1.288       .  A
O95        Eu105   2.441       .  S
O96         C111   1.284       .  A
O96        Eu102   2.436   1_565  S
O97         C114   1.294       .  A
O97        Eu103   2.464   1_565  S
O98         C113   1.298       .  A
O98        Eu103   2.489       .  S
O99         C112   1.290       .  A
O99        Eu102   2.468       .  S
O100        C109   1.287       .  A
O100       Eu106   2.440       .  S
O101        C110   1.291       .  A
O101       Eu106   2.458       .  S
Eu102       O120   2.360       .  S
Eu102       O108   2.349   1_545  S
Eu103       O107   2.345       .  S
Eu103       O118   2.364   1_545  S
Eu104       O118   2.351       .  S
Eu104       O108   2.352       .  S
Eu105       O107   2.352       .  S
Eu105       O120   2.343       .  S
Eu106       O107   2.350   1_565  S
Eu106       O118   2.340       .  S
Eu106       O120   2.352   1_565  S
Eu106       O108   2.355       .  S
C109       C1989   1.471       .  S
C110       C1874   1.473       .  S
C111       C1973   1.498       .  S
C112       C2002   1.505       .  S
C113       C1906   1.509       .  S
C114       C1893   1.479       .  S
C115       C1938   1.509       .  S
C116       C1842   1.483       .  S
H117        O118   0.964       .  S
H119        O120   0.965       .  S
C121        C122   1.522   1_554  S
C121        C127   1.523       .  S
C121        C125   1.549       .  S
C121       C1813   1.530   1_554  S
C122        H129   1.087       .  S
C122        C123   1.368       .  D
C123        C124   1.558   1_556  S
C123       C2213   1.516       .  S
C124        C128   1.554       .  S
C124        C126   1.544       .  S
C124        H130   1.089       .  S
C125        H131   1.083       .  S
C125        C126   1.367       .  D
C126       C1986   1.489       .  S
C127        H132   1.087       .  S
C127        C128   1.359       .  D
C128       C1826   1.495       .  S
C133        C134   1.542   1_556  S
C133        C139   1.547       .  S
C133        C137   1.545       .  S
C133       C1781   1.550       .  S
C134        H141   1.082       .  S
C134        C135   1.369       .  D
C135        C136   1.538   1_554  S
C135       C1970   1.492       .  S
C136        C140   1.536       .  S
C136        C138   1.546       .  S
C136        H142   1.109       .  S
C137        H143   1.076       .  S
C137        C138   1.364       .  D
C138       C2229   1.492       .  S
C139        H144   1.086       .  S
C139        C140   1.364       .  D
C140       C1797   1.492   1_556  S
C145        C146   1.558       .  S
C145        C151   1.532       .  S
C145        C149   1.533       .  S
C145       C1746   1.547       .  S
C146        H153   1.081       .  S
C146        C147   1.372       .  D
C147        C148   1.532       .  S
C147       C1890   1.491       .  S
C148        C152   1.552       .  S
C148        C150   1.555       .  S
C148        H154   1.111       .  S
C149        H155   1.081       .  S
C149        C150   1.367       .  D
C150       C2133   1.509       .  S
C151        H156   1.087       .  S
C151        C152   1.357       .  D
C152       C1762   1.488       .  S
C157        C158   1.531   1_556  S
C157        C163   1.547       .  S
C157        C161   1.546       .  S
C157       C1714   1.539   1_556  S
C158        H165   1.082       .  S
C158        C159   1.364       .  D
C159        C160   1.540   1_554  S
C159       C2005   1.490       .  S
C160        C164   1.535       .  S
C160        C162   1.535       .  S
C160        H166   1.111       .  S
C161        H167   1.083       .  S
C161        C162   1.369       .  D
C162       C2197   1.477       .  S
C163        H168   1.086       .  S
C163        C164   1.362       .  D
C164       C1730   1.487       .  S
C169        C170   1.541       .  S
C169        C175   1.533       .  S
C169        C173   1.526   1_556  S
C169       C1682   1.534       .  S
C170        H177   1.076       .  S
C170        C171   1.372       .  D
C171        C172   1.546       .  S
C171       C2242   1.486       .  S
C172        C176   1.553       .  S
C172        C174   1.550   1_556  S
C172        H178   1.104       .  S
C173        H179   1.087       .  S
C173        C174   1.356       .  D
C174       C1954   1.489       .  S
C175        H180   1.087       .  S
C175        C176   1.365       .  D
C176       C1701   1.510       .  S
C181        C182   1.541       .  S
C181        C187   1.535       .  S
C181        C185   1.540       .  S
C181       C1650   1.541       .  S
C182        H189   1.084       .  S
C182        C183   1.384       .  D
C183        C184   1.556       .  S
C183       C1909   1.536       .  S
C184        C188   1.533       .  S
C184        C186   1.543       .  S
C184        H190   1.092       .  S
C185        H191   1.082       .  S
C185        C186   1.367       .  D
C186       C2098   1.482       .  S
C187        H192   1.087       .  S
C187        C188   1.349       .  D
C188       C1666   1.478       .  S
C193        C194   1.555       .  S
C193        C199   1.518       .  S
C193        C197   1.522       .  S
C193       C1618   1.532       .  S
C194        H201   1.081       .  S
C194        C195   1.373       .  D
C195        C196   1.548       .  S
C195       C2146   1.496       .  S
C196        C200   1.557       .  S
C196        C198   1.555       .  S
C196        H202   1.103       .  S
C197        H203   1.088       .  S
C197        C198   1.359       .  D
C198       C1877   1.490       .  S
C199        H204   1.088       .  S
C199        C200   1.358       .  D
C200       C1634   1.499       .  S
O205        C216   1.291       .  A
O205       Eu241   2.465       .  S
O206        C217   1.292   1_455  A
O206       Eu240   2.462       .  S
O207        C218   1.289       .  A
O207       Eu213   2.449       .  S
O208        C219   1.292       .  A
O208       Eu213   2.463       .  S
O209        C219   1.290       .  A
O209       Eu243   2.456       .  S
O210        C218   1.294       .  A
O210       Eu242   2.472       .  S
O211        C217   1.291       .  A
O211       Eu213   2.467       .  S
O212        C216   1.290       .  A
O212       Eu213   2.450       .  S
Eu213       O223   2.349       .  S
Eu213       O215   2.349       .  S
Eu213       O214   2.341       .  S
Eu213       O221   2.352       .  S
O214       Eu243   2.347       .  S
O214       Eu240   2.350   1_655  S
O215       Eu241   2.351       .  S
O215       Eu242   2.349       .  S
C216       C1749   1.481       .  S
C217       C1458   1.505       .  S
C218       C1570   1.478       .  S
C219       C1538   1.473       .  S
H220        O221   0.965       .  S
O221       Eu242   2.372       .  S
O221       Eu240   2.350   1_655  S
H222        O223   0.965       .  S
O223       Eu241   2.350       .  S
O223       Eu243   2.373       .  S
O224        C247   1.293       .  A
O224       Eu240   2.468       .  S
O225        C248   1.290       .  A
O225       Eu241   2.461       .  S
O226        C249   1.298       .  A
O226       Eu242   2.502   1_455  S
O227        C250   1.297       .  A
O227       Eu243   2.489   1_455  S
O228        C251   1.292       .  A
O228       Eu243   2.476       .  S
O229        C252   1.294       .  A
O229       Eu242   2.486       .  S
O230        C253   1.294       .  A
O230       Eu244   2.470       .  S
O231        C254   1.293       .  A
O231       Eu244   2.476       .  S
O232        C253   1.294       .  A
O232       Eu242   2.484   1_455  S
O233        C254   1.292       .  A
O233       Eu243   2.466   1_455  S
O234        C249   1.291       .  A
O234       Eu240   2.458       .  S
O235        C252   1.294       .  A
O235       Eu241   2.469       .  S
O236        C251   1.295       .  A
O236       Eu241   2.471       .  S
O237        C250   1.288       .  A
O237       Eu240   2.444       .  S
O238        C247   1.284       .  A
O238       Eu244   2.425       .  S
O239        C248   1.285   1_455  A
O239       Eu244   2.419       .  S
Eu240       O258   2.352       .  S
Eu240       O246   2.349       .  S
Eu241       O245   2.358       .  S
Eu241       O256   2.354       .  S
Eu242       O256   2.371       .  S
Eu242       O246   2.351   1_655  S
Eu243       O245   2.352       .  S
Eu243       O258   2.365   1_655  S
Eu244       O245   2.348   1_455  S
Eu244       O256   2.346   1_455  S
Eu244       O258   2.345       .  S
Eu244       O246   2.351       .  S
C247       C1621   1.478       .  S
C248       C1474   1.469       .  S
C249       C1554   1.490       .  S
C250       C1490   1.491       .  S
C251       C1525   1.509       .  S
C252       C1586   1.508       .  S
C253       C1602   1.503       .  S
C254       C1506   1.483       .  S
H255        O256   0.965       .  S
H257        O258   0.965       .  S
O259        C270   1.295       .  A
O259       Eu295   2.484       .  S
O260        C271   1.291   1_455  A
O260       Eu294   2.463       .  S
O261        C272   1.290       .  A
O261       Eu267   2.441       .  S
O262        C273   1.287       .  A
O262       Eu267   2.451       .  S
O263        C273   1.296       .  A
O263       Eu297   2.473       .  S
O264        C272   1.291       .  A
O264       Eu296   2.470       .  S
O265        C271   1.289       .  A
O265       Eu267   2.447       .  S
O266        C270   1.285       .  A
O266       Eu267   2.430       .  S
Eu267       O277   2.356       .  S
Eu267       O269   2.346       .  S
Eu267       O268   2.340       .  S
Eu267       O275   2.352       .  S
O268       Eu297   2.353       .  S
O268       Eu294   2.353   1_655  S
O269       Eu295   2.356       .  S
O269       Eu296   2.354       .  S
C270       C2021   1.479       .  S
C271       C1298   1.470       .  S
C272       C1330   1.500       .  S
C273       C1426   1.502       .  S
H274        O275   0.966       .  S
O275       Eu296   2.347       .  S
O275       Eu294   2.350   1_655  S
H276        O277   0.966       .  S
O277       Eu295   2.362       .  S
O277       Eu297   2.341       .  S
O278        C301   1.288       .  A
O278       Eu294   2.448       .  S
O279        C302   1.295       .  A
O279       Eu295   2.482       .  S
O280        C303   1.290       .  A
O280       Eu296   2.458   1_455  S
O281        C304   1.294       .  A
O281       Eu297   2.467   1_455  S
O282        C305   1.292       .  A
O282       Eu297   2.458       .  S
O283        C306   1.292       .  A
O283       Eu296   2.471       .  S
O284        C307   1.287       .  A
O284       Eu298   2.444       .  S
O285        C308   1.293       .  A
O285       Eu298   2.462       .  S
O286        C307   1.293       .  A
O286       Eu296   2.458   1_455  S
O287        C308   1.289       .  A
O287       Eu297   2.457   1_455  S
O288        C303   1.293       .  A
O288       Eu294   2.470       .  S
O289        C306   1.290       .  A
O289       Eu295   2.447       .  S
O290        C305   1.289       .  A
O290       Eu295   2.450       .  S
O291        C304   1.290       .  A
O291       Eu294   2.459       .  S
O292        C301   1.293       .  A
O292       Eu298   2.466       .  S
O293        C302   1.290   1_455  A
O293       Eu298   2.460       .  S
Eu294       O312   2.352       .  S
Eu294       O300   2.348       .  S
Eu295       O299   2.353       .  S
Eu295       O310   2.355       .  S
Eu296       O310   2.343       .  S
Eu296       O300   2.361   1_655  S
Eu297       O299   2.361       .  S
Eu297       O312   2.337   1_655  S
Eu298       O299   2.349   1_455  S
Eu298       O310   2.359   1_455  S
Eu298       O312   2.345       .  S
Eu298       O300   2.353       .  S
C301       C1653   1.477       .  S
C302       C1314   1.487       .  S
C303       C1381   1.482       .  S
C304       C1442   1.491       .  S
C305       C1410   1.481       .  S
C306       C1346   1.485       .  S
C307       C1365   1.486       .  S
C308       C1394   1.499       .  S
H309        O310   0.964       .  S
H311        O312   0.965       .  S
C313        C314   1.550       .  S
C313        C319   1.529       .  S
C313        C317   1.533       .  S
C313       C1266   1.545       .  S
C314        H321   1.086       .  S
C314        C315   1.363       .  D
C315        C316   1.532       .  S
C315       C1349   1.480       .  S
C316        C320   1.552       .  S
C316        C318   1.551       .  S
C316        H322   1.101       .  S
C317        H323   1.080       .  S
C317        C318   1.365       .  D
C318       C1522   1.491       .  S
C319        H324   1.086       .  S
C319        C320   1.371       .  D
C320       C1282   1.511       .  S
C325        C326   1.560       .  S
C325        C331   1.522       .  S
C325        C329   1.544       .  S
C325       C1237   1.551       .  S
C326        H333   1.068       .  S
C326        C327   1.375       .  D
C327        C328   1.549       .  S
C327       C1509   1.519       .  S
C328        C332   1.536       .  S
C328        C330   1.528       .  S
C328        H334   1.108       .  S
C329        H335   1.086       .  S
C329        C330   1.365       .  D
C330       C1362   1.478       .  S
C331        H336   1.087       .  S
C331        C332   1.357       .  D
C332       C1250   1.471       .  S
C337        C338   1.549   1_545  S
C337        C343   1.534       .  S
C337        C341   1.548       .  S
C337       C1861   1.558       .  S
C338        H345   1.083       .  S
C338        C339   1.362       .  D
C339        C340   1.536   1_565  S
C339       C1573   1.478       .  S
C340        C344   1.533       .  S
C340        C342   1.551       .  S
C340        H346   1.090       .  S
C341        H347   1.083       .  S
C341        C342   1.391       .  D
C342       C1429   1.542       .  S
C343        H348   1.084       .  S
C343        C344   1.355       .  D
C344       C1218   1.482   1_545  S
C349        C350   1.527       .  S
C349        C355   1.535       .  S
C349        C353   1.553   1_545  S
C349       C2085   1.536       .  S
C350        H357   1.087       .  S
C350        C351   1.358       .  D
C351        C352   1.557   1_545  S
C351       C1413   1.494       .  S
C352        C356   1.552       .  S
C352        C354   1.542       .  S
C352        H358   1.105       .  S
C353        H359   1.081       .  S
C353        C354   1.376       .  D
C354       C1589   1.504       .  S
C355        H360   1.086       .  S
C355        C356   1.359   1_545  D
C356       C1202   1.500       .  S
C361        C362   1.536       .  S
C361        C367   1.537       .  S
C361        C365   1.561       .  S
C361       C1173   1.550       .  S
C362        H369   1.085       .  S
C362        C363   1.365       .  D
C363        C364   1.536       .  S
C363       C1541   1.476       .  S
C364        C368   1.529       .  S
C364        C366   1.536       .  S
C364        H370   1.110       .  S
C365        H371   1.077       .  S
C365        C366   1.369       .  D
C366       C1333   1.498       .  S
C367        H372   1.087       .  S
C367        C368   1.360       .  D
C368       C1186   1.478       .  S
C373        C374   1.527       .  S
C373        C379   1.520       .  S
C373        C377   1.564       .  S
C373       C1138   1.546       .  S
C374        H381   1.083       .  S
C374        C375   1.362       .  D
C375        C376   1.562       .  S
C375       C1378   1.516       .  S
C376        C380   1.578       .  S
C376        C378   1.529       .  S
C376        H382   1.097       .  S
C377        H383   1.084       .  S
C377        C378   1.366       .  D
C378       C1493   1.492       .  S
C379        H384   1.083       .  S
C379        C380   1.370       .  D
C380       C1154   1.528       .  S
C385        C386   1.539       .  S
C385        C391   1.531       .  S
C385        C389   1.544   1_545  S
C385       C1845   1.552       .  S
C386        H393   1.086       .  S
C386        C387   1.369       .  D
C387        C388   1.538       .  S
C387       C1445   1.484       .  S
C388        C392   1.555       .  S
C388        C390   1.552   1_545  S
C388        H394   1.106       .  S
C389        H395   1.082       .  S
C389        C390   1.376       .  D
C390       C1557   1.520       .  S
C391        H396   1.086       .  S
C391        C392   1.358       .  D
C392       C1125   1.487       .  S
C397        C398   1.538   1_545  S
C397        C403   1.551       .  S
C397        C401   1.546       .  S
C397       C2069   1.557   1_545  S
C398        H405   1.086       .  S
C398        C399   1.366       .  D
C399        C400   1.544   1_565  S
C399       C1605   1.492       .  S
C400        C404   1.531       .  S
C400        C402   1.546       .  S
C400        H406   1.110       .  S
C401        H407   1.076       .  S
C401        C402   1.372       .  D
C402       C1397   1.505       .  S
C403        H408   1.084       .  S
C403        C404   1.365       .  D
C404       C1109   1.487       .  S
O409        C420   1.291       .  A
O409       Eu445   2.457       .  S
O410        C421   1.287       .  A
O410       Eu444   2.446       .  S
O411        C422   1.291       .  A
O411       Eu417   2.456       .  S
O412        C423   1.291       .  A
O412       Eu417   2.453       .  S
O413        C423   1.293       .  A
O413       Eu447   2.472       .  S
O414        C422   1.292       .  A
O414       Eu446   2.467       .  S
O415        C421   1.296       .  A
O415       Eu417   2.486       .  S
O416        C420   1.292   1_554  A
O416       Eu417   2.469       .  S
Eu417       O427   2.357       .  S
Eu417       O419   2.347       .  S
Eu417       O418   2.342       .  S
Eu417       O425   2.353       .  S
O418       Eu447   2.349       .  S
O418       Eu444   2.344       .  S
O419       Eu445   2.354   1_554  S
O419       Eu446   2.346       .  S
C420       C1778   1.491       .  S
C421       C1170   1.497       .  S
C422        C994   1.473       .  S
C423       C1093   1.473       .  S
H424        O425   0.966       .  S
O425       Eu446   2.373       .  S
O425       Eu444   2.360       .  S
H426        O427   0.965       .  S
O427       Eu445   2.365   1_554  S
O427       Eu447   2.367       .  S
O428        C451   1.289       .  A
O428       Eu444   2.457       .  S
O429        C452   1.296       .  A
O429       Eu445   2.482       .  S
O430        C453   1.293       .  A
O430       Eu446   2.477       .  S
O431        C454   1.288       .  A
O431       Eu447   2.454       .  S
O432        C455   1.295       .  A
O432       Eu447   2.482   1_556  S
O433        C456   1.290       .  A
O433       Eu446   2.463   1_556  S
O434        C457   1.294       .  A
O434       Eu448   2.468       .  S
O435        C458   1.292       .  A
O435       Eu448   2.472       .  S
O436        C457   1.293       .  A
O436       Eu446   2.485   1_556  S
O437        C458   1.293       .  A
O437       Eu447   2.476   1_556  S
O438        C453   1.291       .  A
O438       Eu444   2.459       .  S
O439        C456   1.294       .  A
O439       Eu445   2.465       .  S
O440        C455   1.293       .  A
O440       Eu445   2.476       .  S
O441        C454   1.293       .  A
O441       Eu444   2.455       .  S
O442        C451   1.287   1_556  A
O442       Eu448   2.430       .  S
O443        C452   1.281       .  A
O443       Eu448   2.424       .  S
Eu444       O462   2.351       .  S
Eu444       O450   2.343       .  S
Eu445       O449   2.354       .  S
Eu445       O460   2.361       .  S
Eu446       O460   2.370   1_554  S
Eu446       O450   2.345       .  S
Eu447       O449   2.352   1_554  S
Eu447       O462   2.368       .  S
Eu448       O449   2.357       .  S
Eu448       O460   2.344       .  S
Eu448       O462   2.336   1_556  S
Eu448       O450   2.344   1_556  S
C451       C1685   1.471       .  S
C452       C1269   1.502       .  S
C453        C978   1.477       .  S
C454       C1042   1.493       .  S
C455       C1077   1.489       .  S
C456       C1010   1.498       .  S
C457       C1026   1.512       .  S
C458       C1061   1.482       .  S
H459        O460   0.966       .  S
H461        O462   0.965       .  S
O463        C474   1.289       .  A
O463       Eu499   2.446       .  S
O464        C475   1.298       .  A
O464       Eu498   2.498       .  S
O465        C476   1.292       .  A
O465       Eu471   2.460       .  S
O466        C477   1.290       .  A
O466       Eu471   2.466       .  S
O467        C477   1.295       .  A
O467       Eu501   2.473       .  S
O468        C476   1.292       .  A
O468       Eu500   2.477   1_554  S
O469        C475   1.287       .  A
O469       Eu471   2.442       .  S
O470        C474   1.289   1_554  A
O470       Eu471   2.451       .  S
Eu471       O481   2.359   1_554  S
Eu471       O473   2.341   1_554  S
Eu471       O472   2.349       .  S
Eu471       O479   2.363       .  S
O472       Eu501   2.363       .  S
O472       Eu498   2.354       .  S
O473       Eu499   2.352       .  S
O473       Eu500   2.360       .  S
C474       C1810   1.469       .  S
C475       C1141   1.480       .  S
C476        C885   1.505       .  S
C477        C949   1.501       .  S
H478        O479   0.965       .  S
O479       Eu500   2.335   1_554  S
O479       Eu498   2.351       .  S
H480        O481   0.963       .  S
O481       Eu499   2.350       .  S
O481       Eu501   2.337   1_556  S
O482        C505   1.291       .  A
O482       Eu498   2.461       .  S
O483        C506   1.284       .  A
O483       Eu499   2.439       .  S
O484        C507   1.291       .  A
O484       Eu500   2.477   1_554  S
O485        C508   1.290       .  A
O485       Eu501   2.440       .  S
O486        C509   1.292       .  A
O486       Eu501   2.472   1_556  S
O487        C510   1.287       .  A
O487       Eu500   2.437       .  S
O488        C511   1.288       .  A
O488       Eu502   2.443       .  S
O489        C512   1.291       .  A
O489       Eu502   2.460       .  S
O490        C511   1.292       .  A
O490       Eu500   2.463       .  S
O491        C512   1.292       .  A
O491       Eu501   2.468   1_556  S
O492        C507   1.295       .  A
O492       Eu498   2.472       .  S
O493        C510   1.291       .  A
O493       Eu499   2.462       .  S
O494        C509   1.296       .  A
O494       Eu499   2.486       .  S
O495        C508   1.290       .  A
O495       Eu498   2.462       .  S
O496        C505   1.295   1_556  A
O496       Eu502   2.474       .  S
O497        C506   1.300       .  A
O497       Eu502   2.508       .  S
Eu498       O516   2.367       .  S
Eu498       O504   2.353   1_554  S
Eu499       O503   2.348       .  S
Eu499       O514   2.360       .  S
Eu500       O514   2.355       .  S
Eu500       O504   2.350       .  S
Eu501       O503   2.359   1_554  S
Eu501       O516   2.342       .  S
Eu502       O503   2.351       .  S
Eu502       O514   2.355       .  S
Eu502       O516   2.360   1_556  S
Eu502       O504   2.363       .  S
C505       C1717   1.481       .  S
C506       C1234   1.511       .  S
C507        C869   1.516       .  S
C508        C962   1.497       .  S
C509        C930   1.500       .  S
C510        C898   1.462       .  S
C511        C850   1.472       .  S
C512        C914   1.477       .  S
H513        O514   0.965       .  S
H515        O516   0.965       .  S
C517        C518   1.531       .  S
C517        C523   1.523       .  S
C517        C521   1.548   1_455  S
C517       C1477   1.533       .  S
C518        H525   1.075       .  S
C518        C519   1.370       .  D
C519        C520   1.558       .  S
C519        C901   1.506       .  S
C520        C524   1.555       .  S
C520        C522   1.542   1_455  S
C520        H526   1.107       .  S
C521        H527   1.084       .  S
C521        C522   1.359       .  D
C522       C1074   1.496       .  S
C523        H528   1.085       .  S
C523        C524   1.357       .  D
C524        C837   1.489       .  S
C529        C530   1.537       .  S
C529        C535   1.532       .  S
C529        C533   1.558   1_655  S
C529       C1317   1.544       .  S
C530        H537   1.082       .  S
C530        C531   1.368       .  D
C531        C532   1.552       .  S
C531       C1058   1.508       .  S
C532        C536   1.549       .  S
C532        C534   1.528   1_655  S
C532        H538   1.110       .  S
C533        H539   1.083       .  S
C533        C534   1.361       .  D
C534        C853   1.480       .  S
C535        H540   1.086       .  S
C535        C536   1.362       .  D
C536        C818   1.485       .  S
C541        C542   1.529       .  S
C541        C547   1.525       .  S
C541        C545   1.554       .  S
C541       C2178   1.544       .  S
C542        H549   1.083       .  S
C542        C543   1.361       .  D
C543        C544   1.549       .  S
C543        C933   1.489       .  S
C544        C548   1.544       .  S
C544        C546   1.547       .  S
C544        H550   1.105       .  S
C545        H551   1.080       .  S
C545        C546   1.370       .  D
C546       C1013   1.489       .  S
C547        H552   1.088       .  S
C547        C548   1.365       .  D
C548        C805   1.498       .  S
C553        C554   1.547       .  S
C553        C559   1.524       .  S
C553        C557   1.553       .  S
C553       C1941   1.547       .  S
C554        H561   1.085       .  S
C554        C555   1.369       .  D
C555        C556   1.547       .  S
C555        C997   1.500       .  S
C556        C560   1.549       .  S
C556        C558   1.550       .  S
C556        H562   1.108       .  S
C557        H563   1.084       .  S
C557        C558   1.373       .  D
C558        C946   1.502       .  S
C559        H564   1.088       .  S
C559        C560   1.356       .  D
C560        C789   1.489       .  S
C565        C566   1.541   1_655  S
C565        C571   1.538       .  S
C565        C569   1.533       .  S
C565       C1301   1.542       .  S
C566        H573   1.081       .  S
C566        C567   1.373       .  D
C567        C568   1.554   1_455  S
C567        C866   1.509       .  S
C568        C572   1.542       .  S
C568        C570   1.534       .  S
C568        H574   1.103       .  S
C569        H575   1.086       .  S
C569        C570   1.360       .  D
C570       C1045   1.475       .  S
C571        H576   1.084       .  S
C571        C572   1.360       .  D
C572        C770   1.492       .  S
C577        C578   1.568   1_455  S
C577        C583   1.528   1_455  S
C577        C581   1.535       .  S
C577       C1461   1.558       .  S
C578        H585   1.079       .  S
C578        C579   1.371       .  D
C579        C580   1.529       .  S
C579       C1090   1.501       .  S
C580        C584   1.544       .  S
C580        C582   1.546   1_655  S
C580        H586   1.104   1_655  S
C581        H587   1.082       .  S
C581        C582   1.367       .  D
C582        C882   1.489       .  S
C583        H588   1.081       .  S
C583        C584   1.358       .  D
C584        C754   1.492       .  S
C589        C590   1.541       .  S
C589        C595   1.537       .  S
C589        C593   1.552       .  S
C589       C2165   1.554       .  S
C590        H597   1.083       .  S
C590        C591   1.372       .  D
C591        C592   1.547       .  S
C591       C1029   1.505       .  S
C592        C596   1.543       .  S
C592        C594   1.535       .  S
C592        H598   1.109       .  S
C593        H599   1.083       .  S
C593        C594   1.365       .  D
C594        C917   1.484       .  S
C595        H600   1.084       .  S
C595        C596   1.365       .  D
C596        C741   1.494       .  S
C601        C602   1.549       .  S
C601        C607   1.518       .  S
C601        C605   1.521       .  S
C601       C1925   1.536       .  S
C602        H609   1.082       .  S
C602        C603   1.367       .  D
C603        C604   1.542       .  S
C603        C965   1.482       .  S
C604        C608   1.573       .  S
C604        C606   1.561       .  S
C604        H610   1.106       .  S
C605        H611   1.087       .  S
C605        C606   1.364       .  D
C606        C981   1.513       .  S
C607        H612   1.087       .  S
C607        C608   1.366       .  D
C608        C722   1.513       .  S
O613        C624   1.307       .  A
O613       Eu649   2.551       .  S
O614        C625   1.294       .  A
O614       Eu648   2.485       .  S
O615        C626   1.302       .  A
O615       Eu621   2.530       .  S
O616        C627   1.300       .  A
O616       Eu621   2.515       .  S
O617        C627   1.287       .  A
O617       Eu651   2.424       .  S
O618        C626   1.282       .  A
O618       Eu650   2.391       .  S
O619        C625   1.293       .  A
O619       Eu621   2.466       .  S
O620        C624   1.284       .  A
O620       Eu621   2.420       .  S
Eu621       O631   2.367       .  S
Eu621       O623   2.356       .  S
Eu621       O622   2.363       .  S
Eu621       O629   2.345       .  S
O622       Eu651   2.382       .  S
O622       Eu648   2.362       .  S
O623       Eu649   2.330       .  S
O623       Eu650   2.358       .  S
C624       C2053   1.504       .  S
C625        C738   1.483       .  S
C626       C1285   1.487       .  S
C627       C1669   1.491       .  S
H628        O629   0.965       .  S
O629       Eu650   2.357       .  S
O629       Eu648   2.350       .  S
H630        O631   0.965       .  S
O631       Eu649   2.342       .  S
O631       Eu651   2.342       .  S
O632        C655   1.299       .  A
O632       Eu648   2.509       .  S
O633        C656   1.294       .  A
O633       Eu649   2.482       .  S
O634        C657   1.296       .  A
O634       Eu650   2.498       .  S
O635        C658   1.288       .  A
O635       Eu651   2.452       .  S
O636        C659   1.299       .  A
O636       Eu651   2.520       .  S
O637        C660   1.294       .  A
O637       Eu650   2.484       .  S
O638        C661   1.294       .  A
O638       Eu652   2.487       .  S
O639        C662   1.299       .  A
O639       Eu652   2.518       .  S
O640        C661   1.289       .  A
O640       Eu650   2.453       .  S
O641        C662   1.287       .  A
O641       Eu651   2.430       .  S
O642        C657   1.285       .  A
O642       Eu648   2.416       .  S
O643        C660   1.287       .  A
O643       Eu649   2.425       .  S
O644        C659   1.281       .  A
O644       Eu649   2.395       .  S
O645        C658   1.291       .  A
O645       Eu648   2.443       .  S
O646        C655   1.285       .  A
O646       Eu652   2.421       .  S
O647        C656   1.287       .  A
O647       Eu652   2.430       .  S
Eu648       O666   2.337       .  S
Eu648       O654   2.363       .  S
Eu649       O653   2.357       .  S
Eu649       O664   2.376       .  S
Eu650       O664   2.355       .  S
Eu650       O654   2.347       .  S
Eu651       O653   2.331       .  S
Eu651       O666   2.347       .  S
Eu652       O653   2.352       .  S
Eu652       O664   2.369       .  S
Eu652       O666   2.336       .  S
Eu652       O654   2.362       .  S
C655       C1637   1.479       .  S
C656        C786   1.468       .  S
C657        C802   1.473       .  S
C658       C1253   1.470       .  S
C659        C725   1.481       .  S
C660       C1189   1.477       .  S
C661       C1765   1.483       .  S
C662       C1157   1.495       .  S
H663        O664   0.966       .  S
H665        O666   0.963       .  S
O667        C678   1.302       .  A
O667       Eu703   2.536       .  S
O668        C679   1.297       .  A
O668       Eu702   2.497   1_455  S
O669        C680   1.305       .  A
O669       Eu675   2.541       .  S
O670        C681   1.300       .  A
O670       Eu675   2.511   1_545  S
O671        C681   1.288   1_554  A
O671       Eu705   2.440       .  S
O672        C680   1.273   1_655  A
O672       Eu704   2.374       .  S
O673        C679   1.286   1_565  A
O673       Eu675   2.426       .  S
O674        C678   1.282   1_556  A
O674       Eu675   2.391       .  S
Eu675       O685   2.357   1_566  S
Eu675       O677   2.341   1_556  S
Eu675       O676   2.374   1_565  S
Eu675       O683   2.331   1_455  S
O676       Eu705   2.375   1_556  S
O676       Eu702   2.365   1_455  S
O677       Eu703   2.337       .  S
O677       Eu704   2.349   1_454  S
C678       C1829   1.493       .  S
C679       C1106   1.473       .  S
C680        C834   1.500       .  S
C681       C1733   1.480       .  S
H682        O683   0.964       .  S
O683       Eu704   2.345       .  S
O683       Eu702   2.350   1_565  S
H684        O685   0.962       .  S
O685       Eu703   2.333   1_545  S
O685       Eu705   2.336       .  S
O686        C709   1.298       .  A
O686       Eu702   2.507       .  S
O687        C710   1.295       .  A
O687       Eu703   2.487   1_655  S
O688        C711   1.299       .  A
O688       Eu704   2.519       .  S
O689        C712   1.295       .  A
O689       Eu705   2.492   1_556  S
O690        C713   1.299       .  A
O690       Eu705   2.515       .  S
O691        C714   1.296       .  A
O691       Eu704   2.499   1_554  S
O692        C715   1.295       .  A
O692       Eu706   2.491   1_565  S
O693        C716   1.294       .  A
O693       Eu706   2.485       .  S
O694        C715   1.285       .  A
O694       Eu704   2.424   1_554  S
O695        C716   1.285       .  A
O695       Eu705   2.408   1_655  S
O696        C711   1.283   1_545  A
O696       Eu702   2.396       .  S
O697        C714   1.281       .  A
O697       Eu703   2.393   1_655  S
O698        C713   1.277   1_565  A
O698       Eu703   2.385       .  S
O699        C712   1.289   1_655  A
O699       Eu702   2.439       .  S
O700        C709   1.285   1_554  A
O700       Eu706   2.419       .  S
O701        C710   1.289   1_545  A
O701       Eu706   2.440       .  S
Eu702       O720   2.327   1_556  S
Eu702       O708   2.352       .  S
Eu703       O707   2.346   1_465  S
Eu703       O718   2.374   1_455  S
Eu704       O718   2.361   1_556  S
Eu704       O708   2.340   1_565  S
Eu705       O707   2.344   1_455  S
Eu705       O720   2.353   1_455  S
Eu706       O707   2.348       .  S
Eu706       O718   2.363   1_545  S
Eu706       O720   2.350       .  S
Eu706       O708   2.347   1_554  S
C709       C1698   1.479       .  S
C710       C1221   1.478       .  S
C711       C1205   1.490       .  S
C712        C821   1.480       .  S
C713       C1122   1.486       .  S
C714        C757   1.464       .  S
C715       C1794   1.473       .  S
C716        C773   1.476       .  S
H717        O718   0.966       .  S
H719        O720   0.964       .  S
C721        C722   1.408       .  A
C721        C726   1.395       .  A
C721        H728   1.079       .  S
C722        C723   1.428       .  A
C723        C730   1.512       .  S
C723        C724   1.424       .  A
C724        C725   1.407       .  A
C724        H729   1.083       .  S
C725        C726   1.411       .  A
C726        C727   1.521       .  S
C727        F731   1.384       .  S
C727        F732   1.383       .  S
C727        F733   1.382       .  S
C730        F734   1.378       .  S
C730        F735   1.380       .  S
C730        F736   1.385       .  S
C737        C738   1.403       .  A
C737        C742   1.410       .  A
C737        H744   1.083       .  S
C738        C739   1.412       .  A
C739        C746   1.512       .  S
C739        C740   1.410       .  A
C740        C741   1.407       .  A
C740        H745   1.083       .  S
C741        C742   1.416       .  A
C742        C743   1.513       .  S
C743        F747   1.377       .  S
C743        F748   1.382       .  S
C743        F749   1.384       .  S
C746        F750   1.376       .  S
C746        F751   1.383       .  S
C746        F752   1.385       .  S
C753        C754   1.406   1_455  A
C753        C758   1.407   1_455  A
C753        H760   1.083       .  S
C754        C755   1.434       .  A
C755        C762   1.528       .  S
C755        C756   1.400       .  A
C756        C757   1.394       .  A
C756        H761   1.085       .  S
C757        C758   1.412       .  A
C758        C759   1.515   1_655  S
C759        F763   1.385       .  S
C759        F764   1.383       .  S
C759        F765   1.381   1_454  S
C762        F766   1.382       .  S
C762        F767   1.381       .  S
C762        F768   1.385       .  S
C769        C770   1.417       .  A
C769        C774   1.406       .  A
C769        H776   1.083       .  S
C770        C771   1.416       .  A
C771        C778   1.519   1_655  S
C771        C772   1.399       .  A
C772        C773   1.406       .  A
C772        H777   1.083       .  S
C773        C774   1.408       .  A
C774        C775   1.516       .  S
C775        F779   1.385       .  S
C775        F780   1.378       .  S
C775        F781   1.379       .  S
C778        F782   1.379       .  S
C778        F783   1.380       .  S
C778        F784   1.385       .  S
C785        C786   1.405       .  A
C785        C790   1.411       .  A
C785        H792   1.083       .  S
C786        C787   1.408       .  A
C787        C794   1.519       .  S
C787        C788   1.401       .  A
C788        C789   1.407       .  A
C788        H793   1.078       .  S
C789        C790   1.414       .  A
C790        C791   1.514       .  S
C791        F795   1.384       .  S
C791        F796   1.381       .  S
C791        F797   1.382       .  S
C794        F798   1.383       .  S
C794        F799   1.383       .  S
C794        F800   1.385       .  S
C801        C802   1.407       .  A
C801        C806   1.421       .  A
C801        H808   1.083       .  S
C802        C803   1.413       .  A
C803        C810   1.515       .  S
C803        C804   1.387       .  A
C804        C805   1.399       .  A
C804        H809   1.081       .  S
C805        C806   1.425       .  A
C806        C807   1.516       .  S
C807        F811   1.381       .  S
C807        F812   1.380       .  S
C807        F813   1.385       .  S
C810        F814   1.383       .  S
C810        F815   1.375       .  S
C810        F816   1.382       .  S
C817        C818   1.410   1_455  A
C817        C822   1.413       .  A
C817        H824   1.082       .  S
C818        C819   1.419       .  A
C819        C826   1.519       .  S
C819        C820   1.403       .  A
C820        C821   1.402   1_655  A
C820        H825   1.085       .  S
C821        C822   1.411       .  A
C822        C823   1.516       .  S
C823        F827   1.383       .  S
C823        F828   1.383       .  S
C823        F829   1.384       .  S
C826        F830   1.375       .  S
C826        F831   1.383       .  S
C826        F832   1.383       .  S
C833        C834   1.403       .  A
C833        C838   1.415       .  A
C833        H840   1.083       .  S
C834        C835   1.435   1_455  A
C835        C842   1.523       .  S
C835        C836   1.401       .  A
C836        C837   1.394   1_655  A
C836        H841   1.084       .  S
C837        C838   1.424       .  A
C838        C839   1.514       .  S
C839        F843   1.385       .  S
C839        F844   1.380       .  S
C839        F845   1.377       .  S
C842        F846   1.383       .  S
C842        F847   1.384       .  S
C842        F848   1.386       .  S
C849        C850   1.399       .  A
C849        C854   1.404       .  A
C849        H856   1.083       .  S
C850        C851   1.416       .  A
C851        C858   1.515       .  S
C851        C852   1.404       .  A
C852        C853   1.399       .  A
C852        H857   1.081       .  S
C853        C854   1.416       .  A
C854        C855   1.512       .  S
C855        F859   1.385       .  S
C855        F860   1.380   1_455  S
C855        F861   1.382       .  S
C858        F862   1.383       .  S
C858        F863   1.382       .  S
C858        F864   1.385       .  S
C865        C866   1.405       .  A
C865        C870   1.416       .  A
C865        H872   1.078       .  S
C866        C867   1.421       .  A
C867        C874   1.521       .  S
C867        C868   1.408       .  A
C868        C869   1.411       .  A
C868        H873   1.083       .  S
C869        C870   1.431       .  A
C870        C871   1.522       .  S
C871        F875   1.385       .  S
C871        F876   1.383       .  S
C871        F877   1.380       .  S
C874        F878   1.382       .  S
C874        F879   1.382       .  S
C874        F880   1.384       .  S
C881        C882   1.400       .  A
C881        C886   1.412       .  A
C881        H888   1.083       .  S
C882        C883   1.412       .  A
C883        C890   1.517       .  S
C883        C884   1.409       .  A
C884        C885   1.412       .  A
C884        H889   1.082       .  S
C885        C886   1.428       .  A
C886        C887   1.518       .  S
C887        F891   1.385       .  S
C887        F892   1.381       .  S
C887        F893   1.383       .  S
C890        F894   1.380       .  S
C890        F895   1.383       .  S
C890        F896   1.384       .  S
C897        C898   1.393       .  A
C897        C902   1.407       .  A
C897        H904   1.083       .  S
C898        C899   1.404       .  A
C899        C906   1.518       .  S
C899        C900   1.398       .  A
C900        C901   1.408       .  A
C900        H905   1.072       .  S
C901        C902   1.438       .  A
C902        C903   1.524       .  S
C903        F907   1.381       .  S
C903        F908   1.380       .  S
C903        F909   1.386       .  S
C906        F910   1.383       .  S
C906        F911   1.380       .  S
C906        F912   1.385       .  S
C913        C914   1.404       .  A
C913        C918   1.412       .  A
C913        H920   1.083       .  S
C914        C915   1.415       .  A
C915        C922   1.519       .  S
C915        C916   1.404       .  A
C916        C917   1.401       .  A
C916        H921   1.083       .  S
C917        C918   1.420       .  A
C918        C919   1.522       .  S
C919        F923   1.384       .  S
C919        F924   1.381       .  S
C919        F925   1.381       .  S
C922        F926   1.382       .  S
C922        F927   1.383       .  S
C922        F928   1.384       .  S
C929        C930   1.410       .  A
C929        C934   1.413       .  A
C929        H936   1.083       .  S
C930        C931   1.424       .  A
C931        C938   1.518       .  S
C931        C932   1.411       .  A
C932        C933   1.401       .  A
C932        H937   1.083       .  S
C933        C934   1.412       .  A
C934        C935   1.515       .  S
C935        F939   1.385       .  S
C935        F940   1.384       .  S
C935        F941   1.382       .  S
C938        F942   1.380       .  S
C938        F943   1.385       .  S
C938        F944   1.382       .  S
C945        C946   1.402       .  A
C945        C950   1.413       .  A
C945        H952   1.080       .  S
C946        C947   1.418       .  A
C947        C954   1.510       .  S
C947        C948   1.409       .  A
C948        C949   1.405       .  A
C948        H953   1.082       .  S
C949        C950   1.426       .  A
C950        C951   1.520       .  S
C951        F955   1.384       .  S
C951        F956   1.382       .  S
C951        F957   1.385       .  S
C954        F958   1.379       .  S
C954        F959   1.382       .  S
C954        F960   1.384       .  S
C961        C962   1.412       .  A
C961        C966   1.404       .  A
C961        H968   1.082       .  S
C962        C963   1.426       .  A
C963        C970   1.520       .  S
C963        C964   1.404       .  A
C964        C965   1.397       .  A
C964        H969   1.082       .  S
C965        C966   1.413       .  A
C966        C967   1.516       .  S
C967        F971   1.385       .  S
C967        F972   1.381       .  S
C967        F973   1.381       .  S
C970        F974   1.383       .  S
C970        F975   1.381       .  S
C970        F976   1.385       .  S
C977        C978   1.403       .  A
C977        C982   1.413       .  A
C977        H984   1.085       .  S
C978        C979   1.408       .  A
C979        C986   1.523       .  S
C979        C980   1.404       .  A
C980        C981   1.420       .  A
C980        H985   1.080       .  S
C981        C982   1.423       .  A
C982        C983   1.516       .  S
C983        F987   1.384       .  S
C983        F988   1.379       .  S
C983        F989   1.383       .  S
C986        F990   1.382       .  S
C986        F991   1.380       .  S
C986        F992   1.385       .  S
C993        C994   1.394       .  A
C993        C998   1.402       .  A
C993       H1000   1.084       .  S
C994        C995   1.414       .  A
C995       C1002   1.516       .  S
C995        C996   1.412       .  A
C996        C997   1.409       .  A
C996       H1001   1.081       .  S
C997        C998   1.421       .  A
C998        C999   1.510       .  S
C999       F1003   1.385       .  S
C999       F1004   1.377       .  S
C999       F1005   1.378       .  S
C1002      F1006   1.383       .  S
C1002      F1007   1.381       .  S
C1002      F1008   1.385       .  S
C1009      C1010   1.406       .  A
C1009      C1014   1.406       .  A
C1009      H1016   1.084       .  S
C1010      C1011   1.426       .  A
C1011      C1018   1.514       .  S
C1011      C1012   1.404       .  A
C1012      C1013   1.398       .  A
C1012      H1017   1.082       .  S
C1013      C1014   1.422       .  A
C1014      C1015   1.521       .  S
C1015      F1019   1.385       .  S
C1015      F1020   1.381       .  S
C1015      F1021   1.380       .  S
C1018      F1022   1.383       .  S
C1018      F1023   1.383       .  S
C1018      F1024   1.385       .  S
C1025      C1026   1.411       .  A
C1025      C1030   1.408       .  A
C1025      H1032   1.081       .  S
C1026      C1027   1.427       .  A
C1027      C1034   1.522       .  S
C1027      C1028   1.414       .  A
C1028      C1029   1.407       .  A
C1028      H1033   1.081       .  S
C1029      C1030   1.421       .  A
C1030      C1031   1.520       .  S
C1031      F1035   1.382       .  S
C1031      F1036   1.385       .  S
C1031      F1037   1.376       .  S
C1034      F1038   1.375       .  S
C1034      F1039   1.379       .  S
C1034      F1040   1.386       .  S
C1041      C1042   1.411       .  A
C1041      C1046   1.403       .  A
C1041      H1048   1.082       .  S
C1042      C1043   1.428       .  A
C1043      C1050   1.522       .  S
C1043      C1044   1.406       .  A
C1044      C1045   1.397       .  A
C1044      H1049   1.081       .  S
C1045      C1046   1.409       .  A
C1046      C1047   1.518       .  S
C1047      F1051   1.384       .  S
C1047      F1052   1.382       .  S
C1047      F1053   1.381       .  S
C1050      F1054   1.377       .  S
C1050      F1055   1.382       .  S
C1050      F1056   1.385       .  S
C1057      C1058   1.408       .  A
C1057      C1062   1.407       .  A
C1057      H1064   1.080       .  S
C1058      C1059   1.435       .  A
C1059      C1066   1.525       .  S
C1059      C1060   1.412       .  A
C1060      C1061   1.398       .  A
C1060      H1065   1.084       .  S
C1061      C1062   1.412       .  A
C1062      C1063   1.516       .  S
C1063      F1067   1.385       .  S
C1063      F1068   1.382       .  S
C1063      F1069   1.379   1_556  S
C1066      F1070   1.382       .  S
C1066      F1071   1.379       .  S
C1066      F1072   1.385       .  S
C1073      C1074   1.402       .  A
C1073      C1078   1.414       .  A
C1073      H1080   1.083       .  S
C1074      C1075   1.423       .  A
C1075      C1082   1.516       .  S
C1075      C1076   1.408       .  A
C1076      C1077   1.399       .  A
C1076      H1081   1.083       .  S
C1077      C1078   1.421       .  A
C1078      C1079   1.516       .  S
C1079      F1083   1.385       .  S
C1079      F1084   1.380       .  S
C1079      F1085   1.382       .  S
C1082      F1086   1.381       .  S
C1082      F1087   1.385       .  S
C1082      F1088   1.379   1_655  S
C1089      C1090   1.407       .  A
C1089      C1094   1.405       .  A
C1089      H1096   1.085       .  S
C1090      C1091   1.428       .  A
C1091      C1098   1.515       .  S
C1091      C1092   1.403       .  A
C1092      C1093   1.393       .  A
C1092      H1097   1.081       .  S
C1093      C1094   1.417       .  A
C1094      C1095   1.513       .  S
C1095      F1099   1.377       .  S
C1095      F1100   1.383       .  S
C1095      F1101   1.383       .  S
C1098      F1102   1.376       .  S
C1098      F1103   1.373       .  S
C1098      F1104   1.385       .  S
C1105      C1106   1.398       .  A
C1105      C1110   1.407       .  A
C1105      H1112   1.083       .  S
C1106      C1107   1.420   1_545  A
C1107      C1114   1.518       .  S
C1107      C1108   1.405       .  A
C1108      C1109   1.398   1_565  A
C1108      H1113   1.081       .  S
C1109      C1110   1.419       .  A
C1110      C1111   1.512       .  S
C1111      F1115   1.385       .  S
C1111      F1116   1.382       .  S
C1111      F1117   1.381       .  S
C1114      F1118   1.378   1_455  S
C1114      F1119   1.380       .  S
C1114      F1120   1.385       .  S
C1121      C1122   1.404       .  A
C1121      C1126   1.415       .  A
C1121      H1128   1.083       .  S
C1122      C1123   1.425   1_545  A
C1123      C1130   1.519       .  S
C1123      C1124   1.396   1_565  A
C1124      C1125   1.397       .  A
C1124      H1129   1.085   1_545  S
C1125      C1126   1.419       .  A
C1126      C1127   1.510       .  S
C1127      F1131   1.385       .  S
C1127      F1132   1.382       .  S
C1127      F1133   1.383       .  S
C1130      F1134   1.383       .  S
C1130      F1135   1.383       .  S
C1130      F1136   1.385       .  S
C1137      C1138   1.412       .  A
C1137      C1142   1.405       .  A
C1137      H1144   1.077       .  S
C1138      C1139   1.438       .  A
C1139      C1146   1.524       .  S
C1139      C1140   1.407       .  A
C1140      C1141   1.393       .  A
C1140      H1145   1.082       .  S
C1141      C1142   1.415       .  A
C1142      C1143   1.517       .  S
C1143      F1147   1.386       .  S
C1143      F1148   1.381       .  S
C1143      F1149   1.379       .  S
C1146      F1150   1.377       .  S
C1146      F1151   1.384       .  S
C1146      F1152   1.385       .  S
C1153      C1154   1.424       .  A
C1153      C1158   1.416       .  A
C1153      H1160   1.082       .  S
C1154      C1155   1.425       .  A
C1155      C1162   1.514       .  S
C1155      C1156   1.410       .  A
C1156      C1157   1.406       .  A
C1156      H1161   1.083       .  S
C1157      C1158   1.410       .  A
C1158      C1159   1.518       .  S
C1159      F1163   1.385       .  S
C1159      F1164   1.383       .  S
C1159      F1165   1.381       .  S
C1162      F1166   1.380       .  S
C1162      F1167   1.380       .  S
C1162      F1168   1.384       .  S
C1169      C1170   1.401       .  A
C1169      C1174   1.412       .  A
C1169      H1176   1.085       .  S
C1170      C1171   1.421       .  A
C1171      C1178   1.524       .  S
C1171      C1172   1.403       .  A
C1172      C1173   1.412       .  A
C1172      H1177   1.066       .  S
C1173      C1174   1.439       .  A
C1174      C1175   1.528       .  S
C1175      F1179   1.383       .  S
C1175      F1180   1.374       .  S
C1175      F1181   1.384       .  S
C1178      F1182   1.375       .  S
C1178      F1183   1.382       .  S
C1178      F1184   1.386       .  S
C1185      C1186   1.405       .  A
C1185      C1190   1.411       .  A
C1185      H1192   1.083       .  S
C1186      C1187   1.410       .  A
C1187      C1194   1.515       .  S
C1187      C1188   1.401       .  A
C1188      C1189   1.405       .  A
C1188      H1193   1.084       .  S
C1189      C1190   1.416       .  A
C1190      C1191   1.517       .  S
C1191      F1195   1.385       .  S
C1191      F1196   1.383       .  S
C1191      F1197   1.383       .  S
C1194      F1198   1.382       .  S
C1194      F1199   1.382       .  S
C1194      F1200   1.384       .  S
C1201      C1202   1.418       .  A
C1201      C1206   1.415       .  A
C1201      H1208   1.083       .  S
C1202      C1203   1.414   1_565  A
C1203      C1210   1.514       .  S
C1203      C1204   1.397       .  A
C1204      C1205   1.408   1_545  A
C1204      H1209   1.082       .  S
C1205      C1206   1.411       .  A
C1206      C1207   1.515       .  S
C1207      F1211   1.384       .  S
C1207      F1212   1.382       .  S
C1207      F1213   1.379       .  S
C1210      F1214   1.379       .  S
C1210      F1215   1.378       .  S
C1210      F1216   1.385       .  S
C1217      C1218   1.405       .  A
C1217      C1222   1.409       .  A
C1217      H1224   1.083       .  S
C1218      C1219   1.414   1_565  A
C1219      C1226   1.519       .  S
C1219      C1220   1.406       .  A
C1220      C1221   1.404   1_545  A
C1220      H1225   1.081       .  S
C1221      C1222   1.412       .  A
C1222      C1223   1.515       .  S
C1223      F1227   1.384       .  S
C1223      F1228   1.383       .  S
C1223      F1229   1.382       .  S
C1226      F1230   1.377       .  S
C1226      F1231   1.383       .  S
C1226      F1232   1.382       .  S
C1233      C1234   1.406       .  A
C1233      C1238   1.413       .  A
C1233      H1240   1.084       .  S
C1234      C1235   1.431       .  A
C1235      C1242   1.527       .  S
C1235      C1236   1.407       .  A
C1236      C1237   1.407       .  A
C1236      H1241   1.072       .  S
C1237      C1238   1.435       .  A
C1238      C1239   1.526       .  S
C1239      F1243   1.385       .  S
C1239      F1244   1.376       .  S
C1239      F1245   1.383       .  S
C1242      F1246   1.383       .  S
C1242      F1247   1.378       .  S
C1242      F1248   1.386       .  S
C1249      C1250   1.405       .  A
C1249      C1254   1.409       .  A
C1249      H1256   1.083       .  S
C1250      C1251   1.414       .  A
C1251      C1258   1.520       .  S
C1251      C1252   1.395       .  A
C1252      C1253   1.401       .  A
C1252      H1257   1.083       .  S
C1253      C1254   1.414       .  A
C1254      C1255   1.517       .  S
C1255      F1259   1.384       .  S
C1255      F1260   1.383       .  S
C1255      F1261   1.383       .  S
C1258      F1262   1.385       .  S
C1258      F1263   1.381       .  S
C1258      F1264   1.377       .  S
C1265      C1266   1.409       .  A
C1265      C1270   1.406       .  A
C1265      H1272   1.079       .  S
C1266      C1267   1.431       .  A
C1267      C1274   1.521       .  S
C1267      C1268   1.407       .  A
C1268      C1269   1.404       .  A
C1268      H1273   1.083       .  S
C1269      C1270   1.430       .  A
C1270      C1271   1.526       .  S
C1271      F1275   1.385       .  S
C1271      F1276   1.383       .  S
C1271      F1277   1.383       .  S
C1274      F1278   1.377       .  S
C1274      F1279   1.382       .  S
C1274      F1280   1.386       .  S
C1281      C1282   1.418       .  A
C1281      C1286   1.410       .  A
C1281      H1288   1.082       .  S
C1282      C1283   1.423       .  A
C1283      C1290   1.522       .  S
C1283      C1284   1.407       .  A
C1284      C1285   1.409       .  A
C1284      H1289   1.083       .  S
C1285      C1286   1.407       .  A
C1286      C1287   1.515       .  S
C1287      F1291   1.385       .  S
C1287      F1292   1.382       .  S
C1287      F1293   1.382       .  S
C1290      F1294   1.385       .  S
C1290      F1295   1.382       .  S
C1290      F1296   1.379       .  S
C1297      C1298   1.401   1_455  A
C1297      C1302   1.409   1_455  A
C1297      H1304   1.085       .  S
C1298      C1299   1.412       .  A
C1299      C1306   1.524       .  S
C1299      C1300   1.399       .  A
C1300      C1301   1.416       .  A
C1300      H1305   1.080       .  S
C1301      C1302   1.428       .  A
C1302      C1303   1.523   1_655  S
C1303      F1307   1.383       .  S
C1303      F1308   1.383   1_455  S
C1303      F1309   1.378   1_455  S
C1306      F1310   1.383       .  S
C1306      F1311   1.380       .  S
C1306      F1312   1.384       .  S
C1313      C1314   1.397       .  A
C1313      C1318   1.410       .  A
C1313      H1320   1.080       .  S
C1314      C1315   1.417   1_655  A
C1315      C1322   1.517       .  S
C1315      C1316   1.401       .  A
C1316      C1317   1.410   1_455  A
C1316      H1321   1.075       .  S
C1317      C1318   1.435       .  A
C1318      C1319   1.524       .  S
C1319      F1323   1.385       .  S
C1319      F1324   1.376       .  S
C1319      F1325   1.383       .  S
C1322      F1326   1.377       .  S
C1322      F1327   1.380       .  S
C1322      F1328   1.386       .  S
C1329      C1330   1.409       .  A
C1329      C1334   1.402       .  A
C1329      H1336   1.084       .  S
C1330      C1331   1.425       .  A
C1331      C1338   1.522       .  S
C1331      C1332   1.411       .  A
C1332      C1333   1.408       .  A
C1332      H1337   1.081       .  S
C1333      C1334   1.422       .  A
C1334      C1335   1.523       .  S
C1335      F1339   1.383       .  S
C1335      F1340   1.379       .  S
C1335      F1341   1.385       .  S
C1338      F1342   1.383       .  S
C1338      F1343   1.383       .  S
C1338      F1344   1.385       .  S
C1345      C1346   1.406       .  A
C1345      C1350   1.406       .  A
C1345      H1352   1.083       .  S
C1346      C1347   1.418       .  A
C1347      C1354   1.513       .  S
C1347      C1348   1.406       .  A
C1348      C1349   1.398       .  A
C1348      H1353   1.083       .  S
C1349      C1350   1.413       .  A
C1350      C1351   1.516       .  S
C1351      F1355   1.385       .  S
C1351      F1356   1.381       .  S
C1351      F1357   1.383       .  S
C1354      F1358   1.383       .  S
C1354      F1359   1.380       .  S
C1354      F1360   1.383       .  S
C1361      C1362   1.399       .  A
C1361      C1366   1.408       .  A
C1361      H1368   1.083       .  S
C1362      C1363   1.411       .  A
C1363      C1370   1.513       .  S
C1363      C1364   1.402       .  A
C1364      C1365   1.406       .  A
C1364      H1369   1.082       .  S
C1365      C1366   1.425       .  A
C1366      C1367   1.523       .  S
C1367      F1371   1.384       .  S
C1367      F1372   1.381       .  S
C1367      F1373   1.382       .  S
C1370      F1374   1.377       .  S
C1370      F1375   1.381       .  S
C1370      F1376   1.380       .  S
C1377      C1378   1.410       .  A
C1377      C1382   1.411       .  A
C1377      H1384   1.075       .  S
C1378      C1379   1.439       .  A
C1379      C1386   1.526       .  S
C1379      C1380   1.405       .  A
C1380      C1381   1.393       .  A
C1380      H1385   1.086       .  S
C1381      C1382   1.415       .  A
C1382      C1383   1.516       .  S
C1383      F1387   1.385       .  S
C1383      F1388   1.379       .  S
C1383      F1389   1.383       .  S
C1386      F1390   1.383       .  S
C1386      F1391   1.378       .  S
C1386      F1392   1.384       .  S
C1393      C1394   1.407       .  A
C1393      C1398   1.409       .  A
C1393      H1400   1.083       .  S
C1394      C1395   1.423       .  A
C1395      C1402   1.523       .  S
C1395      C1396   1.405       .  A
C1396      C1397   1.406       .  A
C1396      H1401   1.076       .  S
C1397      C1398   1.427       .  A
C1398      C1399   1.523       .  S
C1399      F1403   1.382       .  S
C1399      F1404   1.378       .  S
C1399      F1405   1.385       .  S
C1402      F1406   1.383       .  S
C1402      F1407   1.381   1_455  S
C1402      F1408   1.385       .  S
C1409      C1410   1.397       .  A
C1409      C1414   1.404       .  A
C1409      H1416   1.085       .  S
C1410      C1411   1.416       .  A
C1411      C1418   1.518       .  S
C1411      C1412   1.406       .  A
C1412      C1413   1.402       .  A
C1412      H1417   1.070       .  S
C1413      C1414   1.427       .  A
C1414      C1415   1.515       .  S
C1415      F1419   1.384       .  S
C1415      F1420   1.384       .  S
C1415      F1421   1.370       .  S
C1418      F1422   1.383       .  S
C1418      F1423   1.384       .  S
C1418      F1424   1.385       .  S
C1425      C1426   1.397       .  A
C1425      C1430   1.411       .  A
C1425      H1432   1.081       .  S
C1426      C1427   1.418       .  A
C1427      C1434   1.523       .  S
C1427      C1428   1.413       .  A
C1428      C1429   1.419       .  A
C1428      H1433   1.077       .  S
C1429      C1430   1.447       .  A
C1430      C1431   1.526       .  S
C1431      F1435   1.386       .  S
C1431      F1436   1.380       .  S
C1431      F1437   1.372       .  S
C1434      F1438   1.382       .  S
C1434      F1439   1.384       .  S
C1434      F1440   1.385       .  S
C1441      C1442   1.409       .  A
C1441      C1446   1.409       .  A
C1441      H1448   1.083       .  S
C1442      C1443   1.423       .  A
C1443      C1450   1.520       .  S
C1443      C1444   1.405       .  A
C1444      C1445   1.397       .  A
C1444      H1449   1.079       .  S
C1445      C1446   1.414       .  A
C1446      C1447   1.516       .  S
C1447      F1451   1.385       .  S
C1447      F1452   1.382       .  S
C1447      F1453   1.381       .  S
C1450      F1454   1.383       .  S
C1450      F1455   1.382       .  S
C1450      F1456   1.385       .  S
C1457      C1458   1.404   1_455  A
C1457      C1462   1.415       .  A
C1457      H1464   1.081       .  S
C1458      C1459   1.421       .  A
C1459      C1466   1.519       .  S
C1459      C1460   1.404       .  A
C1460      C1461   1.412   1_655  A
C1460      H1465   1.067       .  S
C1461      C1462   1.439       .  A
C1462      C1463   1.529       .  S
C1463      F1467   1.385       .  S
C1463      F1468   1.378       .  S
C1463      F1469   1.379       .  S
C1466      F1470   1.383       .  S
C1466      F1471   1.375       .  S
C1466      F1472   1.386       .  S
C1473      C1474   1.398   1_455  A
C1473      C1478   1.397       .  A
C1473      H1480   1.086       .  S
C1474      C1475   1.414       .  A
C1475      C1482   1.521       .  S
C1475      C1476   1.404       .  A
C1476      C1477   1.412   1_655  A
C1476      H1481   1.079       .  S
C1477      C1478   1.429       .  A
C1478      C1479   1.523       .  S
C1479      F1483   1.385       .  S
C1479      F1484   1.376       .  S
C1479      F1485   1.383       .  S
C1482      F1486   1.383       .  S
C1482      F1487   1.382       .  S
C1482      F1488   1.385       .  S
C1489      C1490   1.403       .  A
C1489      C1494   1.409       .  A
C1489      H1496   1.083       .  S
C1490      C1491   1.424       .  A
C1491      C1498   1.518       .  S
C1491      C1492   1.409       .  A
C1492      C1493   1.398       .  A
C1492      H1497   1.083       .  S
C1493      C1494   1.419       .  A
C1494      C1495   1.513       .  S
C1495      F1499   1.385       .  S
C1495      F1500   1.376       .  S
C1495      F1501   1.382       .  S
C1498      F1502   1.382       .  S
C1498      F1503   1.378       .  S
C1498      F1504   1.383       .  S
C1505      C1506   1.395       .  A
C1505      C1510   1.412       .  A
C1505      H1512   1.084       .  S
C1506      C1507   1.411       .  A
C1507      C1514   1.515       .  S
C1507      C1508   1.405       .  A
C1508      C1509   1.412       .  A
C1508      H1513   1.077       .  S
C1509      C1510   1.437       .  A
C1510      C1511   1.521       .  S
C1511      F1515   1.385       .  S
C1511      F1516   1.382       .  S
C1511      F1517   1.380       .  S
C1514      F1518   1.378       .  S
C1514      F1519   1.382       .  S
C1514      F1520   1.385       .  S
C1521      C1522   1.400       .  A
C1521      C1526   1.414       .  A
C1521      H1528   1.080       .  S
C1522      C1523   1.416       .  A
C1523      C1530   1.518       .  S
C1523      C1524   1.405       .  A
C1524      C1525   1.410       .  A
C1524      H1529   1.084       .  S
C1525      C1526   1.431       .  A
C1526      C1527   1.521       .  S
C1527      F1531   1.385       .  S
C1527      F1532   1.384       .  S
C1527      F1533   1.383       .  S
C1530      F1534   1.383       .  S
C1530      F1535   1.379       .  S
C1530      F1536   1.381       .  S
C1537      C1538   1.401       .  A
C1537      C1542   1.407       .  A
C1537      H1544   1.083       .  S
C1538      C1539   1.415       .  A
C1539      C1546   1.516       .  S
C1539      C1540   1.403       .  A
C1540      C1541   1.399       .  A
C1540      H1545   1.083       .  S
C1541      C1542   1.420       .  A
C1542      C1543   1.522       .  S
C1543      F1547   1.381       .  S
C1543      F1548   1.381       .  S
C1543      F1549   1.384       .  S
C1546      F1550   1.381       .  S
C1546      F1551   1.383       .  S
C1546      F1552   1.385       .  S
C1553      C1554   1.404       .  A
C1553      C1558   1.417       .  A
C1553      H1560   1.084       .  S
C1554      C1555   1.414       .  A
C1555      C1562   1.520       .  S
C1555      C1556   1.406       .  A
C1556      C1557   1.414       .  A
C1556      H1561   1.078       .  S
C1557      C1558   1.428       .  A
C1558      C1559   1.516       .  S
C1559      F1563   1.385       .  S
C1559      F1564   1.378       .  S
C1559      F1565   1.382       .  S
C1562      F1566   1.378       .  S
C1562      F1567   1.385       .  S
C1562      F1568   1.381       .  S
C1569      C1570   1.404       .  A
C1569      C1574   1.409       .  A
C1569      H1576   1.083       .  S
C1570      C1571   1.420       .  A
C1571      C1578   1.520       .  S
C1571      C1572   1.404       .  A
C1572      C1573   1.398       .  A
C1572      H1577   1.083       .  S
C1573      C1574   1.418       .  A
C1574      C1575   1.523       .  S
C1575      F1579   1.384       .  S
C1575      F1580   1.382       .  S
C1575      F1581   1.381   1_565  S
C1578      F1582   1.383       .  S
C1578      F1583   1.383       .  S
C1578      F1584   1.385       .  S
C1585      C1586   1.414       .  A
C1585      C1590   1.415       .  A
C1585      H1592   1.084       .  S
C1586      C1587   1.426       .  A
C1587      C1594   1.520       .  S
C1587      C1588   1.404       .  A
C1588      C1589   1.403       .  A
C1588      H1593   1.080       .  S
C1589      C1590   1.420       .  A
C1590      C1591   1.519       .  S
C1591      F1595   1.384       .  S
C1591      F1596   1.382       .  S
C1591      F1597   1.382       .  S
C1594      F1598   1.383       .  S
C1594      F1599   1.380       .  S
C1594      F1600   1.385       .  S
C1601      C1602   1.410       .  A
C1601      C1606   1.409       .  A
C1601      H1608   1.085       .  S
C1602      C1603   1.425       .  A
C1603      C1610   1.520       .  S
C1603      C1604   1.412       .  A
C1604      C1605   1.402       .  A
C1604      H1609   1.081       .  S
C1605      C1606   1.418       .  A
C1606      C1607   1.518       .  S
C1607      F1611   1.380       .  S
C1607      F1612   1.383       .  S
C1607      F1613   1.384       .  S
C1610      F1614   1.381       .  S
C1610      F1615   1.377       .  S
C1610      F1616   1.385       .  S
C1617      C1618   1.409       .  A
C1617      C1622   1.403       .  A
C1617      H1624   1.072       .  S
C1618      C1619   1.441       .  A
C1619      C1626   1.532       .  S
C1619      C1620   1.400       .  A
C1620      C1621   1.392       .  A
C1620      H1625   1.083       .  S
C1621      C1622   1.417       .  A
C1622      C1623   1.520       .  S
C1623      F1627   1.385       .  S
C1623      F1628   1.382       .  S
C1623      F1629   1.378       .  S
C1626      F1630   1.383       .  S
C1626      F1631   1.372       .  S
C1626      F1632   1.385       .  S
C1633      C1634   1.407       .  A
C1633      C1638   1.397       .  A
C1633      H1640   1.084       .  S
C1634      C1635   1.421       .  A
C1635      C1642   1.513       .  S
C1635      C1636   1.414       .  A
C1636      C1637   1.403       .  A
C1636      H1641   1.073       .  S
C1637      C1638   1.411       .  A
C1638      C1639   1.516       .  S
C1639      F1643   1.384       .  S
C1639      F1644   1.381       .  S
C1639      F1645   1.380       .  S
C1642      F1646   1.377       .  S
C1642      F1647   1.380       .  S
C1642      F1648   1.383       .  S
C1649      C1650   1.413       .  A
C1649      C1654   1.405       .  A
C1649      H1656   1.082       .  S
C1650      C1651   1.420       .  A
C1651      C1658   1.516       .  S
C1651      C1652   1.405       .  A
C1652      C1653   1.404       .  A
C1652      H1657   1.086       .  S
C1653      C1654   1.415       .  A
C1654      C1655   1.520       .  S
C1655      F1659   1.385       .  S
C1655      F1660   1.383       .  S
C1655      F1661   1.382       .  S
C1658      F1662   1.382       .  S
C1658      F1663   1.381       .  S
C1658      F1664   1.385       .  S
C1665      C1666   1.404       .  A
C1665      C1670   1.412       .  A
C1665      H1672   1.082       .  S
C1666      C1667   1.409       .  A
C1667      C1674   1.519       .  S
C1667      C1668   1.401       .  A
C1668      C1669   1.409       .  A
C1668      H1673   1.083       .  S
C1669      C1670   1.416       .  A
C1670      C1671   1.510       .  S
C1671      F1675   1.385       .  S
C1671      F1676   1.378       .  S
C1671      F1677   1.382       .  S
C1674      F1678   1.383       .  S
C1674      F1679   1.383       .  S
C1674      F1680   1.385       .  S
C1681      C1682   1.414   1_554  A
C1681      C1686   1.400       .  A
C1681      H1688   1.083       .  S
C1682      C1683   1.422       .  A
C1683      C1690   1.519       .  S
C1683      C1684   1.403       .  A
C1684      C1685   1.405   1_556  A
C1684      H1689   1.085       .  S
C1685      C1686   1.410       .  A
C1686      C1687   1.519       .  S
C1687      F1691   1.385       .  S
C1687      F1692   1.382       .  S
C1687      F1693   1.382       .  S
C1690      F1694   1.382       .  S
C1690      F1695   1.383       .  S
C1690      F1696   1.386       .  S
C1697      C1698   1.403       .  A
C1697      C1702   1.418       .  A
C1697      H1704   1.083       .  S
C1698      C1699   1.413   1_556  A
C1699      C1706   1.517       .  S
C1699      C1700   1.398       .  A
C1700      C1701   1.408   1_554  A
C1700      H1705   1.085       .  S
C1701      C1702   1.428       .  A
C1702      C1703   1.515       .  S
C1703      F1707   1.385       .  S
C1703      F1708   1.377       .  S
C1703      F1709   1.381       .  S
C1706      F1710   1.382       .  S
C1706      F1711   1.379       .  S
C1706      F1712   1.385       .  S
C1713      C1714   1.412       .  A
C1713      C1718   1.407       .  A
C1713      H1720   1.081       .  S
C1714      C1715   1.424   1_554  A
C1715      C1722   1.519       .  S
C1715      C1716   1.405       .  A
C1716      C1717   1.403   1_556  A
C1716      H1721   1.086       .  S
C1717      C1718   1.416       .  A
C1718      C1719   1.518       .  S
C1719      F1723   1.385       .  S
C1719      F1724   1.377       .  S
C1719      F1725   1.381       .  S
C1722      F1726   1.379       .  S
C1722      F1727   1.385       .  S
C1722      F1728   1.382       .  S
C1729      C1730   1.400   1_554  A
C1729      C1734   1.407       .  A
C1729      H1736   1.085       .  S
C1730      C1731   1.422       .  A
C1731      C1738   1.518       .  S
C1731      C1732   1.407       .  A
C1732      C1733   1.400       .  A
C1732      H1737   1.085       .  S
C1733      C1734   1.424   1_556  A
C1734      C1735   1.517       .  S
C1735      F1739   1.384       .  S
C1735      F1740   1.377       .  S
C1735      F1741   1.384       .  S
C1738      F1742   1.384       .  S
C1738      F1743   1.379       .  S
C1738      F1744   1.383       .  S
C1745      C1746   1.415       .  A
C1745      C1750   1.406       .  A
C1745      H1752   1.082       .  S
C1746      C1747   1.427       .  A
C1747      C1754   1.516       .  S
C1747      C1748   1.408       .  A
C1748      C1749   1.402       .  A
C1748      H1753   1.086       .  S
C1749      C1750   1.411       .  A
C1750      C1751   1.517       .  S
C1751      F1755   1.382       .  S
C1751      F1756   1.381       .  S
C1751      F1757   1.383       .  S
C1754      F1758   1.383       .  S
C1754      F1759   1.375       .  S
C1754      F1760   1.383       .  S
C1761      C1762   1.398       .  A
C1761      C1766   1.406       .  A
C1761      H1768   1.083       .  S
C1762      C1763   1.431       .  A
C1763      C1770   1.522       .  S
C1763      C1764   1.409       .  A
C1764      C1765   1.397       .  A
C1764      H1769   1.085       .  S
C1765      C1766   1.415       .  A
C1766      C1767   1.506       .  S
C1767      F1771   1.384       .  S
C1767      F1772   1.381       .  S
C1767      F1773   1.380       .  S
C1770      F1774   1.384       .  S
C1770      F1775   1.379       .  S
C1770      F1776   1.383       .  S
C1777      C1778   1.405       .  A
C1777      C1782   1.410       .  A
C1777      H1784   1.085       .  S
C1778      C1779   1.416   1_556  A
C1779      C1786   1.520       .  S
C1779      C1780   1.409       .  A
C1780      C1781   1.415   1_554  A
C1780      H1785   1.082       .  S
C1781      C1782   1.430       .  A
C1782      C1783   1.522       .  S
C1783      F1787   1.386       .  S
C1783      F1788   1.381       .  S
C1783      F1789   1.382       .  S
C1786      F1790   1.382       .  S
C1786      F1791   1.382       .  S
C1786      F1792   1.384       .  S
C1793      C1794   1.403   1_556  A
C1793      C1798   1.408       .  A
C1793      H1800   1.083       .  S
C1794      C1795   1.410       .  A
C1795      C1802   1.515       .  S
C1795      C1796   1.407       .  A
C1796      C1797   1.406       .  A
C1796      H1801   1.078       .  S
C1797      C1798   1.415   1_554  A
C1798      C1799   1.511       .  S
C1799      F1803   1.383       .  S
C1799      F1804   1.381       .  S
C1799      F1805   1.382       .  S
C1802      F1806   1.383       .  S
C1802      F1807   1.383       .  S
C1802      F1808   1.385       .  S
C1809      C1810   1.397       .  A
C1809      C1814   1.404       .  A
C1809      H1816   1.085       .  S
C1810      C1811   1.414   1_556  A
C1811      C1818   1.519       .  S
C1811      C1812   1.398       .  A
C1812      C1813   1.406   1_554  A
C1812      H1817   1.076       .  S
C1813      C1814   1.436       .  A
C1814      C1815   1.528       .  S
C1815      F1819   1.384       .  S
C1815      F1820   1.377       .  S
C1815      F1821   1.384       .  S
C1818      F1822   1.379       .  S
C1818      F1823   1.381       .  S
C1818      F1824   1.385       .  S
C1825      C1826   1.417       .  A
C1825      C1830   1.413       .  A
C1825      H1832   1.083       .  S
C1826      C1827   1.412   1_554  A
C1827      C1834   1.522       .  S
C1827      C1828   1.402   1_556  A
C1828      C1829   1.414       .  A
C1828      H1833   1.082   1_554  S
C1829      C1830   1.411       .  A
C1830      C1831   1.516       .  S
C1831      F1835   1.385       .  S
C1831      F1836   1.382       .  S
C1831      F1837   1.378       .  S
C1834      F1838   1.383       .  S
C1834      F1839   1.380       .  S
C1834      F1840   1.385       .  S
C1841      C1842   1.401   1_565  A
C1841      C1846   1.412       .  A
C1841      H1848   1.084       .  S
C1842      C1843   1.412       .  A
C1843      C1850   1.519       .  S
C1843      C1844   1.403       .  A
C1844      C1845   1.415       .  A
C1844      H1849   1.080       .  S
C1845      C1846   1.432   1_545  A
C1846      C1847   1.520       .  S
C1847      F1851   1.384       .  S
C1847      F1852   1.383       .  S
C1847      F1853   1.378       .  S
C1850      F1854   1.384       .  S
C1850      F1855   1.382       .  S
C1850      F1856   1.385       .  S
C1857      C1858   1.402       .  A
C1857      C1862   1.415       .  A
C1857      H1864   1.081       .  S
C1858      C1859   1.417   1_545  A
C1859      C1866   1.515       .  S
C1859      C1860   1.411       .  A
C1860      C1861   1.411   1_565  A
C1860      H1865   1.078       .  S
C1861      C1862   1.436       .  A
C1862      C1863   1.523       .  S
C1863      F1867   1.384       .  S
C1863      F1868   1.383       .  S
C1863      F1869   1.378       .  S
C1866      F1870   1.382       .  S
C1866      F1871   1.383       .  S
C1866      F1872   1.384       .  S
C1873      C1874   1.408       .  A
C1873      C1878   1.413       .  A
C1873      H1880   1.083       .  S
C1874      C1875   1.409       .  A
C1875      C1882   1.520       .  S
C1875      C1876   1.400       .  A
C1876      C1877   1.407       .  A
C1876      H1881   1.082       .  S
C1877      C1878   1.415       .  A
C1878      C1879   1.517       .  S
C1879      F1883   1.385       .  S
C1879      F1884   1.383       .  S
C1879      F1885   1.381       .  S
C1882      F1886   1.382       .  S
C1882      F1887   1.383       .  S
C1882      F1888   1.384       .  S
C1889      C1890   1.404       .  A
C1889      C1894   1.411       .  A
C1889      H1896   1.081       .  S
C1890      C1891   1.417       .  A
C1891      C1898   1.508       .  S
C1891      C1892   1.401       .  A
C1892      C1893   1.398       .  A
C1892      H1897   1.083       .  S
C1893      C1894   1.419       .  A
C1894      C1895   1.520       .  S
C1895      F1899   1.384       .  S
C1895      F1900   1.382       .  S
C1895      F1901   1.384       .  S
C1898      F1902   1.380       .  S
C1898      F1903   1.379       .  S
C1898      F1904   1.385       .  S
C1905      C1906   1.401       .  A
C1905      C1910   1.410       .  A
C1905      H1912   1.080       .  S
C1906      C1907   1.424       .  A
C1907      C1914   1.523       .  S
C1907      C1908   1.415       .  A
C1908      C1909   1.417       .  A
C1908      H1913   1.079       .  S
C1909      C1910   1.437       .  A
C1910      C1911   1.520       .  S
C1911      F1915   1.385       .  S
C1911      F1916   1.374       .  S
C1911      F1917   1.382       .  S
C1914      F1918   1.383       .  S
C1914      F1919   1.383       .  S
C1914      F1920   1.385       .  S
C1921      C1922   1.391       .  A
C1921      C1926   1.402       .  A
C1921      H1928   1.084       .  S
C1922      C1923   1.411       .  A
C1923      C1930   1.519       .  S
C1923      C1924   1.402       .  A
C1924      C1925   1.412       .  A
C1924      H1929   1.073       .  S
C1925      C1926   1.441       .  A
C1926      C1927   1.528       .  S
C1927      F1931   1.384       .  S
C1927      F1932   1.384       .  S
C1927      F1933   1.371       .  S
C1930      F1934   1.379       .  S
C1930      F1935   1.384       .  S
C1930      F1936   1.385       .  S
C1937      C1938   1.405       .  A
C1937      C1942   1.407       .  A
C1937      H1944   1.084       .  S
C1938      C1939   1.429       .  A
C1939      C1946   1.524       .  S
C1939      C1940   1.415       .  A
C1940      C1941   1.411       .  A
C1940      H1945   1.078       .  S
C1941      C1942   1.433       .  A
C1942      C1943   1.527       .  S
C1943      F1947   1.386       .  S
C1943      F1948   1.381       .  S
C1943      F1949   1.375       .  S
C1946      F1950   1.381       .  S
C1946      F1951   1.384       .  S
C1946      F1952   1.385       .  S
C1953      C1954   1.404       .  A
C1953      C1958   1.413       .  A
C1953      H1960   1.083       .  S
C1954      C1955   1.427       .  A
C1955      C1962   1.519       .  S
C1955      C1956   1.403       .  A
C1956      C1957   1.396       .  A
C1956      H1961   1.085       .  S
C1957      C1958   1.421       .  A
C1958      C1959   1.517       .  S
C1959      F1963   1.385       .  S
C1959      F1964   1.383       .  S
C1959      F1965   1.382       .  S
C1962      F1966   1.373   1_554  S
C1962      F1967   1.383       .  S
C1962      F1968   1.384       .  S
C1969      C1970   1.401       .  A
C1969      C1974   1.403       .  A
C1969      H1976   1.080       .  S
C1970      C1971   1.419       .  A
C1971      C1978   1.521       .  S
C1971      C1972   1.407       .  A
C1972      C1973   1.410       .  A
C1972      H1977   1.082       .  S
C1973      C1974   1.430       .  A
C1974      C1975   1.528       .  S
C1975      F1979   1.386       .  S
C1975      F1980   1.383       .  S
C1975      F1981   1.381       .  S
C1978      F1982   1.379       .  S
C1978      F1983   1.380       .  S
C1978      F1984   1.385       .  S
C1985      C1986   1.409       .  A
C1985      C1990   1.405       .  A
C1985      H1992   1.083       .  S
C1986      C1987   1.417       .  A
C1987      C1994   1.519       .  S
C1987      C1988   1.405       .  A
C1988      C1989   1.402       .  A
C1988      H1993   1.084       .  S
C1989      C1990   1.412       .  A
C1990      C1991   1.518       .  S
C1991      F1995   1.385       .  S
C1991      F1996   1.381       .  S
C1991      F1997   1.380       .  S
C1994      F1998   1.383       .  S
C1994      F1999   1.379       .  S
C1994      F2000   1.385       .  S
C2001      C2002   1.414       .  A
C2001      C2006   1.407       .  A
C2001      H2008   1.080       .  S
C2002      C2003   1.427       .  A
C2003      C2010   1.523       .  S
C2003      C2004   1.408       .  A
C2004      C2005   1.402       .  A
C2004      H2009   1.081       .  S
C2005      C2006   1.415       .  A
C2006      C2007   1.523       .  S
C2007      F2011   1.382       .  S
C2007      F2012   1.384       .  S
C2007      F2013   1.381       .  S
C2010      F2014   1.383       .  S
C2010      F2015   1.384       .  S
C2010      F2016   1.385       .  S
C2017      C2018   1.413       .  A
C2017      C2022   1.401       .  A
C2017      H2024   1.081       .  S
C2018      C2019   1.428       .  A
C2019      C2026   1.520       .  S
C2019      C2020   1.410       .  A
C2020      C2021   1.402       .  A
C2020      H2025   1.085       .  S
C2021      C2022   1.415       .  A
C2022      C2023   1.523       .  S
C2023      F2027   1.385       .  S
C2023      F2028   1.382       .  S
C2023      F2029   1.384       .  S
C2026      F2030   1.378       .  S
C2026      F2031   1.383       .  S
C2026      F2032   1.385       .  S
C2033      C2034   1.395       .  A
C2033      C2038   1.410       .  A
C2033      H2040   1.083       .  S
C2034      C2035   1.409       .  A
C2035      C2042   1.517       .  S
C2035      C2036   1.407       .  A
C2036      C2037   1.411       .  A
C2036      H2041   1.082       .  S
C2037      C2038   1.436       .  A
C2038      C2039   1.522       .  S
C2039      F2043   1.386       .  S
C2039      F2044   1.379       .  S
C2039      F2045   1.381       .  S
C2042      F2046   1.381       .  S
C2042      F2047   1.381       .  S
C2042      F2048   1.385       .  S
C2049      C2050   1.391       .  A
C2049      C2054   1.405       .  A
C2049      H2056   1.084       .  S
C2050      C2051   1.430       .  A
C2051      C2058   1.516       .  S
C2051      C2052   1.411       .  A
C2052      C2053   1.399       .  A
C2052      H2057   1.084       .  S
C2053      C2054   1.432       .  A
C2054      C2055   1.507       .  S
C2055      F2059   1.386       .  S
C2055      F2060   1.375       .  S
C2055      F2061   1.382       .  S
C2058      F2062   1.382       .  S
C2058      F2063   1.382       .  S
C2058      F2064   1.384       .  S
C2065      C2066   1.404       .  A
C2065      C2070   1.415       .  A
C2065      H2072   1.085       .  S
C2066      C2067   1.419   1_545  A
C2067      C2074   1.516       .  S
C2067      C2068   1.411       .  A
C2068      C2069   1.414       .  A
C2068      H2073   1.081       .  S
C2069      C2070   1.432   1_565  A
C2070      C2071   1.522       .  S
C2071      F2075   1.380   1_545  S
C2071      F2076   1.384   1_545  S
C2071      F2077   1.382       .  S
C2074      F2078   1.383       .  S
C2074      F2079   1.379       .  S
C2074      F2080   1.383       .  S
C2081      C2082   1.400       .  A
C2081      C2086   1.402       .  A
C2081      H2088   1.086   1_545  S
C2082      C2083   1.414       .  A
C2083      C2090   1.521       .  S
C2083      C2084   1.407       .  A
C2084      C2085   1.415       .  A
C2084      H2089   1.081       .  S
C2085      C2086   1.420       .  A
C2086      C2087   1.515   1_545  S
C2087      F2091   1.385   1_565  S
C2087      F2092   1.379       .  S
C2087      F2093   1.376   1_565  S
C2090      F2094   1.378       .  S
C2090      F2095   1.382       .  S
C2090      F2096   1.385       .  S
C2097      C2098   1.403       .  A
C2097      C2102   1.404       .  A
C2097      H2104   1.081       .  S
C2098      C2099   1.421       .  A
C2099      C2106   1.518       .  S
C2099      C2100   1.405       .  A
C2100      C2101   1.398       .  A
C2100      H2105   1.084       .  S
C2101      C2102   1.413       .  A
C2102      C2103   1.520       .  S
C2103      F2107   1.384       .  S
C2103      F2108   1.384       .  S
C2103      F2109   1.382       .  S
C2106      F2110   1.383       .  S
C2106      F2111   1.378       .  S
C2106      F2112   1.385       .  S
C2113      C2114   1.409       .  A
C2113      C2118   1.413       .  A
C2113      H2120   1.081       .  S
C2114      C2115   1.429       .  A
C2115      C2122   1.519       .  S
C2115      C2116   1.411       .  A
C2116      C2117   1.403       .  A
C2116      H2121   1.083       .  S
C2117      C2118   1.425       .  A
C2118      C2119   1.517       .  S
C2119      F2123   1.385       .  S
C2119      F2124   1.376       .  S
C2119      F2125   1.379       .  S
C2122      F2126   1.383       .  S
C2122      F2127   1.380       .  S
C2122      F2128   1.385       .  S
C2129      C2130   1.392       .  A
C2129      C2134   1.407       .  A
C2129      H2136   1.084       .  S
C2130      C2131   1.417       .  A
C2131      C2138   1.516       .  S
C2131      C2132   1.416       .  A
C2132      C2133   1.408       .  A
C2132      H2137   1.082       .  S
C2133      C2134   1.433       .  A
C2134      C2135   1.518       .  S
C2135      F2139   1.383       .  S
C2135      F2140   1.369       .  S
C2135      F2141   1.381       .  S
C2138      F2142   1.380       .  S
C2138      F2143   1.384       .  S
C2138      F2144   1.385       .  S
C2145      C2146   1.404       .  A
C2145      C2150   1.408       .  A
C2145      H2152   1.082       .  S
C2146      C2147   1.418       .  A
C2147      C2154   1.510       .  S
C2147      C2148   1.399       .  A
C2148      C2149   1.404       .  A
C2148      H2153   1.081       .  S
C2149      C2150   1.428       .  A
C2150      C2151   1.524       .  S
C2151      F2155   1.384       .  S
C2151      F2156   1.384       .  S
C2151      F2157   1.384       .  S
C2154      F2158   1.377       .  S
C2154      F2159   1.376       .  S
C2154      F2160   1.385       .  S
C2161      C2162   1.401       .  A
C2161      C2166   1.414       .  A
C2161      H2168   1.080       .  S
C2162      C2163   1.415       .  A
C2163      C2170   1.515       .  S
C2163      C2164   1.409       .  A
C2164      C2165   1.411       .  A
C2164      H2169   1.079       .  S
C2165      C2166   1.435       .  A
C2166      C2167   1.522       .  S
C2167      F2171   1.385       .  S
C2167      F2172   1.378       .  S
C2167      F2173   1.383       .  S
C2170      F2174   1.382       .  S
C2170      F2175   1.381       .  S
C2170      F2176   1.383       .  S
C2177      C2178   1.406       .  A
C2177      C2182   1.400       .  A
C2177      H2184   1.071       .  S
C2178      C2179   1.441       .  A
C2179      C2186   1.529       .  S
C2179      C2180   1.408       .  A
C2180      C2181   1.395       .  A
C2180      H2185   1.082       .  S
C2181      C2182   1.419       .  A
C2182      C2183   1.516       .  S
C2183      F2187   1.385       .  S
C2183      F2188   1.380       .  S
C2183      F2189   1.382       .  S
C2186      F2190   1.381       .  S
C2186      F2191   1.374       .  S
C2186      F2192   1.386       .  S
C2193      C2194   1.401       .  A
C2193      C2198   1.405       .  A
C2193      H2200   1.082       .  S
C2194      C2195   1.415       .  A
C2195      C2202   1.517       .  S
C2195      C2196   1.402       .  A
C2196      C2197   1.401       .  A
C2196      H2201   1.082       .  S
C2197      C2198   1.417       .  A
C2198      C2199   1.519       .  S
C2199      F2203   1.385       .  S
C2199      F2204   1.380       .  S
C2199      F2205   1.380       .  S
C2202      F2206   1.382       .  S
C2202      F2207   1.382       .  S
C2202      F2208   1.385       .  S
C2209      C2210   1.406       .  A
C2209      C2214   1.410       .  A
C2209      H2216   1.082       .  S
C2210      C2211   1.425       .  A
C2211      C2218   1.526       .  S
C2211      C2212   1.407       .  A
C2212      C2213   1.411       .  A
C2212      H2217   1.082       .  S
C2213      C2214   1.428       .  A
C2214      C2215   1.516       .  S
C2215      F2219   1.386       .  S
C2215      F2220   1.373   1_556  S
C2215      F2221   1.378   1_556  S
C2218      F2222   1.384       .  S
C2218      F2223   1.381       .  S
C2218      F2224   1.385       .  S
C2225      C2226   1.403       .  A
C2225      C2230   1.406       .  A
C2225      H2232   1.085       .  S
C2226      C2227   1.422       .  A
C2227      C2234   1.517       .  S
C2227      C2228   1.408       .  A
C2228      C2229   1.400       .  A
C2228      H2233   1.077       .  S
C2229      C2230   1.422       .  A
C2230      C2231   1.517       .  S
C2231      F2235   1.384       .  S
C2231      F2236   1.383       .  S
C2231      F2237   1.377       .  S
C2234      F2238   1.378       .  S
C2234      F2239   1.383       .  S
C2234      F2240   1.385       .  S
C2241      C2242   1.399       .  A
C2241      C2246   1.405       .  A
C2241      H2248   1.082       .  S
C2242      C2243   1.417       .  A
C2243      C2250   1.522       .  S
C2243      C2244   1.405       .  A
C2244      C2245   1.411       .  A
C2244      H2249   1.083       .  S
C2245      C2246   1.431       .  A
C2246      C2247   1.525       .  S
C2247      F2251   1.385       .  S
C2247      F2252   1.382       .  S
C2247      F2253   1.384       .  S
C2250      F2254   1.382       .  S
C2250      F2255   1.383       .  S
C2250      F2256   1.384       .  S
