geometry optimzed in LAMMPS
_audit_creation_date              2020-11-30 
_audit_creation_method            'lammps2cif' 
_symmetry_space_group_name_H-M    'P1' 
_symmetry_Int_Tables_number       1 
_symmetry_cell_setting            triclinic 
loop_ 
_symmetry_equiv_pos_as_xyz 
  x,y,z 
_cell_length_a                    31.83352567 
_cell_length_b                    31.831993341384656 
_cell_length_c                    31.832273980845404 
_cell_angle_alpha                 90.01979311766739 
_cell_angle_beta                  89.97972673422872 
_cell_angle_gamma                 90.01862255451992 
loop_ 
_atom_site_label 
_atom_site_type_symbol 
_atom_site_fract_x 
_atom_site_fract_y 
_atom_site_fract_z 
_atom_site_charge 
C1          C  0.80930046  0.77922944  0.74898148     0.81500
N2          N  0.77955219  0.80966960  0.74792991    -0.76800
C3          C  0.74902298  0.81108253  0.77773460     0.84000
N4          N  0.74813982  0.78154231  0.80849819    -0.76700
C5          C  0.77791913  0.75091545  0.80974804     0.84100
N6          N  0.80826934  0.74977097  0.77983677    -0.78400
C7          C  0.27621495  0.80363514  0.24304988     0.81500
N8          N  0.30698052  0.80451733  0.27258662    -0.76800
C9          C  0.30823860  0.77473119  0.30320693     0.84000
N10         N  0.27833406  0.74437459  0.30434735    -0.76700
C11         C  0.24747794  0.74334315  0.27489130     0.84100
N12         N  0.24641775  0.77309870  0.24445813    -0.78400
C13         C  0.80509101  0.80789018  0.27858646     0.81500
N14         N  0.80651992  0.77842706  0.24783690    -0.76800
C15         C  0.77708721  0.74753125  0.24623084     0.84000
N16         N  0.74634381  0.74609697  0.27569929    -0.76700
C17         C  0.74473847  0.77552971  0.30659689     0.84100
N18         N  0.77420079  0.80627906  0.30802573    -0.78400
C19         C  0.31056370  0.27849477  0.25193926     0.81500
N20         N  0.28122120  0.30931505  0.24987293    -0.76800
C21         C  0.24973915  0.31108540  0.27864116     0.84000
N22         N  0.24753264  0.28164261  0.30936398    -0.76700
C23         C  0.27676062  0.25061061  0.31163524     0.84100
N24         N  0.30813059  0.24901961  0.28277365    -0.78400
C25         C  0.74159975  0.27646779  0.25046817     0.81500
N26         N  0.74301035  0.30626611  0.28100499    -0.76800
C27         C  0.77344616  0.30520696  0.31075620     0.84000
N28         N  0.80290210  0.27434985  0.30972107    -0.76700
C29         C  0.80175961  0.24444455  0.27936358     0.84100
N30         N  0.77113673  0.24570163  0.24958153    -0.78400
C31         C  0.75039946  0.24208966  0.77562818     0.81500
N32         N  0.74834013  0.27143348  0.74480755    -0.76800
C33         C  0.77711606  0.30290849  0.74303605     0.84000
N34         N  0.80783923  0.30510589  0.77247685    -0.76700
C35         C  0.81010405  0.27587683  0.80350828     0.84100
N36         N  0.78123506  0.24451409  0.80510127    -0.78400
C37         C  0.27420090  0.80223985  0.81201301     0.81500
N38         N  0.30367288  0.77140134  0.80958014    -0.76800
C39         C  0.30207887  0.74253935  0.77820842     0.84000
N40         N  0.27104770  0.74481465  0.74898137    -0.76700
C41         C  0.24160993  0.77554148  0.75118675     0.84100
N42         N  0.24338168  0.80430882  0.78267020    -0.78400
O43         O  0.05566194  0.03596256  0.95588723    -0.87000
C44         C  0.12190007  0.02107384  0.06312509     0.89000
Mg45       Mg  0.01601074  0.08938864  0.94673776     1.58100
O46         O  0.03260399  0.95633786  0.05660654    -0.86700
O47         O  0.04847873  0.96742922  0.95874567    -0.74100
C48         C  0.91247752  0.11159873  0.12686702     0.94100
O49         O  0.09699765  0.10611581  0.01508802    -0.73900
O50         O  0.92250628  0.13384874  0.09521369    -0.81400
Mg51       Mg  0.11867100  0.04875123  0.97685010     1.58000
C52         C  0.95283236  0.94350067  0.15813222     0.94000
O53         O  0.14809819  0.99406296  0.93778458    -0.79700
H54         H  0.99916454  0.91290004  0.02595207    -0.05000
C55         C  0.02000294  0.06292260  0.12428373     0.88900
O56         O  0.95789762  0.05176641  0.96717731    -0.74200
O57         O  0.10675054  0.00903793  0.02940439    -0.86900
O58         O  0.99141343  0.93758119  0.14897548    -0.79700
C59         C  0.12248546  0.91252550  0.11001341     0.94100
C60         C  0.15637375  0.95521629  0.94348493     0.94000
Mg61       Mg  0.94413086  0.01791857  0.08882545     1.58000
O62         O  0.92066237  0.07257139  0.12927109    -0.79700
O63         O  0.96400197  0.96002576  0.05055388    -0.73900
O64         O  0.12543733  0.92152148  0.07121761    -0.79700
O65         O  0.13185552  0.09457720  0.92371931    -0.81500
O66         O  0.93691361  0.15099569  0.99507743    -0.79800
C67         C  0.99885073  0.94156969  0.04410718     0.88400
O68         O  0.95418504  0.05806711  0.03582059    -0.86900
O69         O  0.00720776  0.02957018  0.10893255    -0.87000
O70         O  0.01352323  0.09813633  0.10663366    -0.74100
Mg71       Mg  0.08580749  0.94636156  0.01672902     1.58000
O72         O  0.09075640  0.92242013  0.13214459    -0.81500
H73         H  0.02518062  0.00344776  0.91163538    -0.05200
O74         O  0.02838002  0.10912697  0.00979914    -0.86700
H75         H  0.06164581  0.15259803  0.04055974    -0.05000
H76         H  0.91048517  0.02777824  0.00239205    -0.05200
C77         C  0.06205912  0.12409396  0.02216332     0.88400
C78         C  0.04291256  0.00255373  0.94055747     0.89000
C79         C  0.93934370  0.04566101  0.00205349     0.89000
H80         H  0.03830185  0.06195945  0.15281294    -0.05200
O81         O  0.10390233  0.01402938  0.09807433    -0.74200
Mg82       Mg  0.97567663  0.12077814  0.04944169     1.58000
H83         H  0.15059940  0.03915484  0.06274844    -0.05200
C84         C  0.10981159  0.12651076  0.91413893     0.94000
O85         O  0.97265370  0.14428120  0.93508438    -0.81400
C86         C  0.94271290  0.15984543  0.95637807     0.94000
O87         O  0.14041045  0.93405194  0.97329128    -0.81400
Mg88       Mg  0.04613346  0.97636770  0.11976022     1.58200
O89         O  0.07090277  0.12925871  0.92280536    -0.79700
O90         O  0.93174539  0.97393650  0.14326596    -0.81400
C91         C  0.17334075  0.30652300  0.89417505     0.81500
N92         N  0.15471947  0.26881900  0.90133522    -0.76800
C93         C  0.16371710  0.23537865  0.87648141     0.84000
N94         N  0.19116323  0.23962271  0.84432057    -0.76700
C95         C  0.21008004  0.27711407  0.83697076     0.84100
N96         N  0.20128246  0.31066069  0.86208748    -0.78400
C97         C  0.89146874  0.17519609  0.30688621     0.81500
N98         N  0.85986673  0.20376135  0.31052684    -0.76800
C99         C  0.83528247  0.21288142  0.27665692     0.84000
N100        N  0.84271452  0.19367960  0.23933063    -0.76700
C101        C  0.87439779  0.16561737  0.23557486     0.84100
N102        N  0.89869583  0.15631039  0.26932412    -0.78400
C103        C  0.30220162  0.89188711  0.17131363     0.81500
N104        N  0.30657779  0.86113663  0.20070559    -0.76800
C105        C  0.27284981  0.83702367  0.21146146     0.84000
N106        N  0.23510424  0.84393666  0.19291897    -0.76700
C107        C  0.23074882  0.87471742  0.16401295     0.84100
N108        N  0.26427326  0.89857436  0.15311263    -0.78400
O109        O  0.01799231  0.45557768  0.49720368    -0.87000
C110        C  0.03159051  0.56287781  0.43076766     0.89000
Mg111      Mg  0.96474450  0.44573775  0.53699242     1.58100
O112        O  0.09708323  0.55694009  0.51947647    -0.86700
O113        O  0.08657110  0.45905081  0.50381303    -0.74100
C114        C  0.94183917  0.62512994  0.64074870     0.94100
O115        O  0.94716521  0.51428644  0.45624906    -0.73900
O116        O  0.91974182  0.59326222  0.63110783    -0.81400
Mg117      Mg  0.00468245  0.47650411  0.43428579     1.58000
C118        C  0.10896036  0.65820521  0.59949530     0.94000
O119        O  0.05929673  0.43781643  0.40465786    -0.79700
H120        H  0.14092681  0.52654651  0.55256702    -0.05000
C121        C  0.98980015  0.62338732  0.53310775     0.88900
O122        O  0.00235406  0.46608154  0.59509782    -0.74200
O123        O  0.04398981  0.52932111  0.44594888    -0.86900
O124        O  0.11486210  0.64947076  0.56079853    -0.79700
C125        C  0.13922784  0.61084700  0.42900859     0.94100
C126        C  0.09799008  0.44372467  0.39591810     0.94000
Mg127      Mg  0.03551324  0.58791758  0.60841811     1.58000
O128        O  0.98076440  0.62780059  0.63222775    -0.79700
O129        O  0.09361726  0.55031401  0.58805746    -0.73900
O130        O  0.13070931  0.57192021  0.42633699    -0.79700
O131        O  0.95938214  0.42307322  0.42121263    -0.81500
O132        O  0.90319089  0.49334462  0.61635684    -0.79800
C133        C  0.11206886  0.54438396  0.55310429     0.88400
O134        O  0.99573177  0.53466229  0.59858399    -0.86900
O135        O  0.02335463  0.60819773  0.54549877    -0.87000
O136        O  0.95475726  0.60549152  0.53989025    -0.74100
Mg137      Mg  0.10691287  0.51716508  0.46621489     1.58000
O138        O  0.12958764  0.63294434  0.46087743    -0.81500
H139        H  0.05109511  0.41172916  0.52758131    -0.05200
O140        O  0.94446811  0.50866246  0.52484855    -0.86700
H141        H  0.90065719  0.53924626  0.49192876    -0.05000
H142        H  0.02612932  0.50155711  0.64241760    -0.05200
C143        C  0.92927563  0.52106250  0.49129786     0.88400
C144        C  0.05162380  0.44059353  0.50974805     0.89000
C145        C  0.00828709  0.50102917  0.61355828     0.89000
H146        H  0.99042226  0.65200822  0.51492688    -0.05200
O147        O  0.03837244  0.59792120  0.44866605    -0.74200
Mg148      Mg  0.93281011  0.54796615  0.57767102     1.58000
H149        H  0.01340239  0.56225698  0.40215147    -0.05200
C150        C  0.92752079  0.41342633  0.44331609     0.94000
O151        O  0.91001777  0.43350151  0.58040132    -0.81400
C152        C  0.89445443  0.45464950  0.61044425     0.94000
O153        O  0.11913980  0.47376798  0.41147612    -0.81400
Mg154      Mg  0.07616426  0.61986425  0.50618407     1.58200
O155        O  0.92485715  0.42194012  0.48224463    -0.79700
O156        O  0.07891913  0.64264831  0.62064866    -0.81400
C157        C  0.74747076  0.39544892  0.37988286     0.81500
N158        N  0.78517373  0.40207105  0.39868007    -0.76800
C159        C  0.81850488  0.37728193  0.38916703     0.84000
N160        N  0.81418285  0.34573908  0.36106471    -0.76700
C161        C  0.77671849  0.33891990  0.34198094     0.84100
N162        N  0.74324491  0.36395581  0.35126971    -0.78400
C163        C  0.15722055  0.67423246  0.24893967     0.81500
N164        N  0.18872235  0.70283308  0.24470063    -0.76800
C165        C  0.21375885  0.71212777  0.27817222     0.84000
N166        N  0.20693109  0.69306360  0.31564659    -0.76700
C167        C  0.17537961  0.66497544  0.31998142     0.84100
N168        N  0.15059038  0.65545572  0.28665306    -0.78400
C169        C  0.87837620  0.80517873  0.65869696     0.81500
N170        N  0.84978197  0.80941481  0.69020481    -0.76800
C171        C  0.84050861  0.77594752  0.71525542     0.84000
N172        N  0.85958924  0.73847925  0.70843668    -0.76700
C173        C  0.88767324  0.73414739  0.67687969     0.84100
N174        N  0.89717077  0.76747231  0.65207570    -0.78400
O175        O  0.99706739  0.95165168  0.51417487    -0.87000
C176        C  0.94284974  0.06688948  0.50662981     0.89000
Mg177      Mg  0.02841822  0.93022915  0.56881338     1.58100
O178        O  0.03767813  0.05736121  0.45173650    -0.86700
O179        O  0.01198821  0.96204260  0.44782283    -0.74100
C180        C  0.15276297  0.08896224  0.62453258     0.94100
O181        O  0.95277963  0.00438519  0.58715883    -0.73900
O182        O  0.13382158  0.05807559  0.64147946    -0.81400
Mg183      Mg  0.93517343  0.97651365  0.52266843     1.58000
C184        C  0.13009765  0.14449538  0.45844845     0.94000
O185        O  0.91317439  0.94684685  0.45996687    -0.79700
H186        H  0.07216729  0.02871861  0.40777154    -0.05000
C187        C  0.04583324  0.10938928  0.56772810     0.88900
O188        O  0.09222399  0.94848827  0.54069078    -0.74200
O189        O  0.95581350  0.03321692  0.49202733    -0.86900
O190        O  0.09157840  0.14177998  0.44771974    -0.79700
C191        C  0.96260696  0.12502637  0.40033558     0.94100
C192        C  0.91031590  0.95777336  0.42155042     0.94000
Mg193      Mg  0.12161221  0.07026838  0.52526234     1.58000
O194        O  0.14731338  0.09895691  0.58623098    -0.79700
O195        O  0.10414985  0.04248482  0.46111160    -0.73900
O196        O  0.95330902  0.08648288  0.40540532    -0.79700
O197        O  0.91213212  0.91792566  0.55762243    -0.81500
O198        O  0.10607832  0.95985112  0.64030748    -0.79800
C199        C  0.07122826  0.04283834  0.43861916     0.88400
O200        O  0.10105445  0.01491005  0.55612622    -0.86900
O201        O  0.06034015  0.09733866  0.53366779    -0.87000
O202        O  0.04703366  0.08659018  0.60058204    -0.74100
Mg203      Mg  0.98305998  0.02579989  0.43071762     1.58000
O204        O  0.99316155  0.14233321  0.41954280    -0.81500
H205        H  0.02684074  0.90872905  0.47933575    -0.05200
O206        O  0.01981272  0.99105157  0.59686060    -0.86700
H207        H  0.98455401  0.01960562  0.64028757    -0.05000
H208        H  0.14508850  0.98118762  0.52669063    -0.05200
C209        C  0.98586137  0.00517104  0.60962541     0.88400
C210        C  0.01203379  0.93923110  0.48053834     0.89000
C211        C  0.11437087  0.98165604  0.54111564     0.89000
H212        H  0.03076326  0.13971894  0.56935057    -0.05200
O213        O  0.96494376  0.10024264  0.50585837    -0.74200
Mg214      Mg  0.07583745  0.02241533  0.61802703     1.58000
H215        H  0.91234243  0.06772498  0.52140640    -0.05200
C216        C  0.92936725  0.89850170  0.58802329     0.94000
O217        O  0.06338342  0.90637562  0.62461997    -0.81400
C218        C  0.09558635  0.92124276  0.64271313     0.94000
O219        O  0.92734422  0.99069668  0.40704733    -0.81400
Mg220      Mg  0.02904749  0.11878996  0.47757001     1.58200
O221        O  0.96779365  0.90375939  0.59765910    -0.79700
O222        O  0.14482336  0.12675936  0.49089957    -0.81400
C223        C  0.16857038  0.75048085  0.66390756     0.81500
N224        N  0.14989331  0.78830615  0.65818988    -0.76800
C225        C  0.16091748  0.82162312  0.68229902     0.84000
N226        N  0.19040820  0.81714044  0.71253485    -0.76700
C227        C  0.20942605  0.77943361  0.71846931     0.84100
N228        N  0.19854746  0.74597274  0.69402370    -0.78400
C229        C  0.30094267  0.16281804  0.38458303     0.81500
N230        N  0.30579995  0.19290635  0.35457748    -0.76800
C231        C  0.27262681  0.21777643  0.34376864     0.84000
N232        N  0.23491141  0.21232082  0.36294235    -0.76700
C233        C  0.23007833  0.18219168  0.39248116     0.84100
N234        N  0.26308106  0.15763081  0.40340031    -0.78400
C235        C  0.89042944  0.88242723  0.25090103     0.81500
N236        N  0.86103381  0.85155592  0.24730390    -0.76800
C237        C  0.83753531  0.84045101  0.28139281     0.84000
N238        N  0.84361631  0.86015765  0.31868173    -0.76700
C239        C  0.87306188  0.89050890  0.32224295     0.84100
N240        N  0.89628146  0.90177209  0.28839011    -0.78400
O241        O  0.45441577  0.49693887  0.01811893    -0.87000
C242        C  0.56165254  0.43071640  0.03306394     0.89000
Mg243      Mg  0.44527787  0.53657379  0.96467957     1.58100
O244        O  0.55510452  0.52004084  0.09776692    -0.86700
O245        O  0.45725201  0.50415173  0.08664989    -0.74100
C246        C  0.62538973  0.64013352  0.94249623     0.94100
O247        O  0.51364641  0.45558902  0.94800048    -0.73900
O248        O  0.59374492  0.63009560  0.92024034    -0.81400
Mg249      Mg  0.47539307  0.43392629  0.00535759     1.58000
C250        C  0.65662262  0.59982078  0.11060410     0.94000
O251        O  0.43631580  0.40451270  0.06004332    -0.79700
H252        H  0.52443938  0.55349121  0.14119049    -0.07400
C253        C  0.62280912  0.53261583  0.99119792     0.88900
O254        O  0.46569628  0.59470273  0.00229369    -0.74200
O255        O  0.52792807  0.44586875  0.04508448    -0.86900
O256        O  0.64746427  0.56124061  0.11653293    -0.79700
C257        C  0.60850544  0.43017598  0.14162188     0.94100
C258        C  0.44200298  0.39625613  0.09889560     0.94000
Mg259      Mg  0.58733043  0.60849976  0.03617309     1.58000
O260        O  0.62778442  0.63195740  0.98152534    -0.79700
O261        O  0.54904845  0.58864447  0.09406230    -0.73900
O262        O  0.56971380  0.42721816  0.13261769    -0.79700
O263        O  0.42228348  0.42071687  0.95951645    -0.81500
O264        O  0.49361686  0.61567133  0.90307539    -0.79800
C265        C  0.54260009  0.55379864  0.11252483     0.88400
O266        O  0.53433853  0.59842636  0.99601429    -0.86900
O267        O  0.60744597  0.54541767  0.02454217    -0.87000
O268        O  0.60517028  0.53908439  0.95597751    -0.74100
Mg269      Mg  0.51523114  0.46683594  0.10774866     1.58000
O270        O  0.63063518  0.46190457  0.13172320    -0.81500
H271        H  0.41015181  0.52742667  0.05060851    -0.05200
O272        O  0.50834542  0.52420840  0.94496473    -0.86700
H273        H  0.53912978  0.49093083  0.90151537    -0.05000
H274        H  0.50089226  0.64212694  0.02628350    -0.05200
C275        C  0.52072141  0.49052435  0.93001445     0.88400
C276        C  0.43907334  0.50970021  0.05151808     0.89000
C277        C  0.50056556  0.61326512  0.00840749     0.89000
H278        H  0.65134187  0.51431947  0.99217429    -0.05200
O279        O  0.59659594  0.44872144  0.04011084    -0.74200
Mg280      Mg  0.54797953  0.57691915  0.93331208     1.58000
H281        H  0.56128451  0.40200930  0.01499426    -0.05200
C282        C  0.41270709  0.44275084  0.92757465     0.94000
O283        O  0.43363240  0.57991799  0.90977364    -0.81400
C284        C  0.45492247  0.60986464  0.89421552     0.94000
O285        O  0.47179801  0.41223309  0.12006346    -0.81400
Mg286      Mg  0.61826255  0.50650761  0.07775824     1.58200
O287        O  0.42136717  0.48166220  0.92481783    -0.79700
O288        O  0.64175994  0.62090159  0.08016230    -0.81400
C289        C  0.39270080  0.37920896  0.74756411     0.81500
N290        N  0.39988114  0.39782147  0.78526893    -0.76800
C291        C  0.37503365  0.38883102  0.81871536     0.84000
N292        N  0.34285801  0.36140162  0.81447634    -0.76700
C293        C  0.33548835  0.34249448  0.77698367     0.84100
N294        N  0.36059910  0.35128462  0.74343190    -0.78400
C295        C  0.66982728  0.25046507  0.16225162     0.81500
N296        N  0.65161589  0.28839210  0.15557539    -0.76800
C297        C  0.66252269  0.32192024  0.17942586     0.84000
N298        N  0.69144633  0.31757053  0.21018890    -0.76700
C299        C  0.70999987  0.27982683  0.21709118     0.84100
N300        N  0.69923691  0.24609420  0.19298505    -0.78400
C301        C  0.80542019  0.66116911  0.87896016     0.81500
N302        N  0.80907092  0.69278880  0.85041502    -0.76800
C303        C  0.77520529  0.71737987  0.84129746     0.84000
N304        N  0.73787321  0.70993609  0.86048023    -0.76700
C305        C  0.73410737  0.67823479  0.88852130     0.84100
N306        N  0.76785238  0.65393041  0.89782673    -0.78400
O307        O  0.01268154  0.55551710  0.10248613    -0.87000
C308        C  0.00513750  0.60974569  0.98725826     0.89000
Mg309      Mg  0.06731863  0.52416004  0.12389473     1.58100
O310        O  0.95024780  0.51491058  0.99676929    -0.86700
O311        O  0.94633447  0.54058822  0.09209323    -0.74100
C312        C  0.12303566  0.39981925  0.96514626     0.94100
O313        O  0.08566117  0.59980631  0.04975172    -0.73900
O314        O  0.13998018  0.41875734  0.99603608    -0.81400
Mg315      Mg  0.02117588  0.61741511  0.07763051     1.58000
C316        C  0.95695768  0.42250396  0.90961297     0.94000
O317        O  0.95847675  0.63941795  0.10730150    -0.79700
H318        H  0.90628190  0.48041648  0.02539978    -0.05000
C319        C  0.06623198  0.50675570  0.94473332     0.88900
O320        O  0.03919173  0.46035468  0.10562765    -0.74200
O321        O  0.99053368  0.59677815  0.02092858    -0.86900
O322        O  0.94623070  0.46102506  0.91233810    -0.79700
C323        C  0.89885137  0.59000167  0.92912023     0.94100
C324        C  0.92006069  0.64227260  0.09637686     0.94000
Mg325      Mg  0.02376702  0.43097067  0.98384290     1.58000
O326        O  0.08473555  0.40527052  0.95515166    -0.79700
O327        O  0.95961763  0.44843101  0.01162766    -0.73900
O328        O  0.90391797  0.59928959  0.96766628    -0.79700
O329        O  0.05613716  0.64045207  0.13621676    -0.81500
O330        O  0.13880709  0.44649274  0.09426061    -0.79800
C331        C  0.93712780  0.48135636  0.01128259     0.88400
O332        O  0.05462821  0.45152084  0.03920583    -0.86900
O333        O  0.03217317  0.49224999  0.95678531    -0.87000
O334        O  0.09908509  0.50555176  0.96753101    -0.74100
Mg335      Mg  0.92922865  0.56952643  0.02834212     1.58000
O336        O  0.91805746  0.55944849  0.91180642    -0.81500
H337        H  0.97784731  0.52573509  0.14540519    -0.05200
O338        O  0.09535789  0.53276682  0.06307090    -0.86700
H339        H  0.13878260  0.56802695  0.03452011    -0.05000
H340        H  0.02518540  0.40748964  0.07292656    -0.05200
C341        C  0.10812418  0.56672055  0.04895645     0.88400
C342        C  0.97904806  0.54054566  0.11490507     0.89000
C343        C  0.03961477  0.43820701  0.07245919     0.89000
H344        H  0.06785367  0.52182674  0.91440614    -0.05200
O345        O  0.00436781  0.58765348  0.95390269    -0.74200
Mg346      Mg  0.11652625  0.47674089  0.03170217     1.58000
H347        H  0.01991313  0.64025141  0.98642722    -0.05200
C348        C  0.08654174  0.62321314  0.15563093     0.94000
O349        O  0.12312194  0.48919155  0.14773574    -0.81400
C350        C  0.14121482  0.45698766  0.13286774     0.94000
O351        O  0.90555786  0.62523789  0.06345678    -0.81400
Mg352      Mg  0.97607988  0.52355223  0.93534214     1.58200
O353        O  0.09617302  0.58478399  0.15036759    -0.79700
O354        O  0.98940668  0.40777094  0.92734555    -0.81400
C355        C  0.74940037  0.66220429  0.17168061     0.81500
N356        N  0.74580402  0.69159892  0.20255404    -0.76800
C357        C  0.77989477  0.71508685  0.21366950     0.84000
N358        N  0.81718581  0.70899618  0.19397181    -0.76700
C359        C  0.82074694  0.67955032  0.16361891     0.84100
N360        N  0.78689145  0.65634134  0.15234449    -0.78400
C361        C  0.16242628  0.38410462  0.30365841     0.81500
N362        N  0.19255849  0.35414516  0.30818793    -0.76800
C363        C  0.21701076  0.34325669  0.27473503     0.84000
N364        N  0.21106620  0.36224508  0.23701599    -0.76700
C365        C  0.18081489  0.39171619  0.23251190     0.84100
N366        N  0.15669905  0.40275213  0.26582004    -0.78400
C367        C  0.88306636  0.25167143  0.89127898     0.81500
N368        N  0.85305154  0.24682239  0.86120019    -0.76800
C369        C  0.84224259  0.28000136  0.83633652     0.84000
N370        N  0.86142570  0.31771354  0.84178869    -0.76700
C371        C  0.89097369  0.32253787  0.87190836     0.84100
N372        N  0.90189255  0.28952979  0.89646291    -0.78400
O373        O  0.49644226  0.03490709  0.09879837    -0.87000
C374        C  0.42917158  0.02095952  0.99190507     0.89000
Mg375      Mg  0.53652030  0.08791329  0.10837429     1.58100
O376        O  0.51774725  0.95536061  0.99794388    -0.86700
O377        O  0.50260384  0.96632839  0.09584723    -0.74100
C378        C  0.64067270  0.10922750  0.92925747     0.94100
O379        O  0.45532692  0.10572800  0.04021560    -0.73900
O380        O  0.63033933  0.13158889  0.96069483    -0.81400
Mg381      Mg  0.43343531  0.04833079  0.07826493     1.58000
C382        C  0.59723351  0.94251472  0.89636835     0.94000
O383        O  0.40383733  0.99407961  0.11731181    -0.79700
H384        H  0.55066219  0.91133935  0.02825850    -0.05000
C385        C  0.53168065  0.06225627  0.93067713     0.88900
O386        O  0.59434339  0.05005823  0.08782281    -0.74200
O387        O  0.44446439  0.00871493  0.02546711    -0.86900
O388        O  0.55857344  0.93684456  0.90534456    -0.79700
C389        C  0.42777111  0.91195499  0.94494309     0.94100
C390        C  0.39485853  0.95541882  0.11163987     0.94000
Mg391      Mg  0.60686140  0.01614492  0.96624376     1.58000
O392        O  0.63168725  0.07041894  0.92639872    -0.79700
O393        O  0.58632214  0.95832185  0.00410978    -0.73900
O394        O  0.42490730  0.92094819  0.98374932    -0.79700
O395        O  0.42108403  0.09344476  0.13187235    -0.81500
O396        O  0.61579490  0.14883552  0.06006892    -0.79800
C397        C  0.55130431  0.94014500  0.01033136     0.88400
O398        O  0.59728745  0.05622714  0.01924537    -0.86900
O399        O  0.54393220  0.02869419  0.94596507    -0.87000
O400        O  0.53868952  0.09732861  0.94843454    -0.74100
Mg401      Mg  0.46474492  0.94578406  0.03802269     1.58000
O402        O  0.45920843  0.92228760  0.92258363    -0.81500
H403        H  0.52674921  0.00199517  0.14282447    -0.05200
O404        O  0.52395803  0.10819923  0.04544696    -0.86700
H405        H  0.49102341  0.15206666  0.01495465    -0.05000
H406        H  0.64132048  0.02592294  0.05214944    -0.05200
C407        C  0.49039507  0.12348900  0.03320454     0.88400
C408        C  0.50882672  0.00135008  0.11401997     0.89000
C409        C  0.61251397  0.04384218  0.05279931     0.89000
H410        H  0.51342519  0.06162341  0.90210410    -0.05200
O411        O  0.44692732  0.01394617  0.95683268    -0.74200
Mg412      Mg  0.57674483  0.11923247  0.00582251     1.58000
H413        H  0.40059796  0.03920996  0.99253756    -0.05200
C414        C  0.44344336  0.12488018  0.14221180     0.94000
O415        O  0.58015850  0.14249449  0.12014544    -0.81400
C416        C  0.61013196  0.15780857  0.09873266     0.94000
O417        O  0.41016790  0.93401057  0.08166008    -0.81400
Mg418      Mg  0.50432162  0.97589470  0.93493659     1.58200
O419        O  0.48224813  0.12774538  0.13321940    -0.79700
O420        O  0.61863723  0.97250018  0.91167100    -0.81400
C421        C  0.66289465  0.16934107  0.74991217     0.81500
N422        N  0.65643734  0.15111643  0.78785334    -0.76800
C423        C  0.68043300  0.16204022  0.82126181     0.84000
N424        N  0.71110905  0.19109164  0.81684557    -0.76700
C425        C  0.71779755  0.20967044  0.77908247     0.84100
N426        N  0.69350951  0.19888292  0.74546274    -0.78400
C427        C  0.38331910  0.30421171  0.16443890     0.81500
N428        N  0.40154984  0.26627203  0.15798831    -0.76800
C429        C  0.39062889  0.23286488  0.18198860     0.84000
N430        N  0.36157370  0.23728032  0.21266166    -0.76700
C431        C  0.34298917  0.27504188  0.21934347     0.84100
N432        N  0.35377373  0.30866037  0.19505105    -0.78400
C433        C  0.24844574  0.88970596  0.88480053     0.81500
N434        N  0.24401398  0.85910425  0.85524100    -0.76800
C435        C  0.27764125  0.83482711  0.84445060     0.84000
N436        N  0.31539550  0.84151376  0.86304422    -0.76700
C437        C  0.31979483  0.87217726  0.89211370     0.84100
N438        N  0.28637840  0.89616210  0.90303993    -0.78400
O439        O  0.60095228  0.53993547  0.49857929    -0.87000
C440        C  0.48573944  0.54747333  0.44433087     0.89000
Mg441      Mg  0.62237287  0.48529913  0.52992943     1.58100
O442        O  0.49522681  0.60233755  0.53918243    -0.86700
O443        O  0.59055096  0.60628073  0.51352243    -0.74100
C444        C  0.46363600  0.42951268  0.65424426     0.94100
O445        O  0.54824355  0.46695076  0.45427350    -0.73900
O446        O  0.49453643  0.41258147  0.63531125    -0.81400
Mg447      Mg  0.57611056  0.53144599  0.43667614     1.58000
C448        C  0.40806130  0.59559313  0.63157506     0.94000
O449        O  0.60576942  0.59415385  0.41468422    -0.79700
H450        H  0.52383342  0.64630519  0.57369556    -0.05000
C451        C  0.44321883  0.48632882  0.54730442     0.88900
O452        O  0.60408634  0.51341257  0.59373642    -0.74200
O453        O  0.51940349  0.56207968  0.45730779    -0.86900
O454        O  0.41079691  0.60633155  0.59305823    -0.79700
C455        C  0.42758738  0.65375461  0.46409996     0.94100
C456        C  0.59484733  0.63257313  0.41183924     0.94000
Mg457      Mg  0.48229447  0.52879339  0.62310348     1.58000
O458        O  0.45362062  0.46780844  0.64878749    -0.79700
O459        O  0.51006242  0.59295767  0.60566452    -0.73900
O460        O  0.46613441  0.64869628  0.45481731    -0.79700
O461        O  0.63470603  0.49649917  0.41364260    -0.81500
O462        O  0.59276375  0.41379589  0.60758728    -0.79800
C463        C  0.50972491  0.61545451  0.57274393     0.88400
O464        O  0.53767121  0.49795354  0.60255799    -0.86900
O465        O  0.45525586  0.52039190  0.56181619    -0.87000
O466        O  0.46602477  0.45347945  0.54851292    -0.74100
Mg467      Mg  0.52680560  0.62338228  0.48457966     1.58000
O468        O  0.41027060  0.63453202  0.49464097    -0.81500
H469        H  0.64386334  0.57476897  0.52837037    -0.05200
O470        O  0.56156282  0.45723851  0.52131058    -0.86700
H471        H  0.53301983  0.41381673  0.48603854    -0.05000
H472        H  0.57137326  0.52740295  0.64659735    -0.05200
C473        C  0.54745156  0.44447873  0.48735327     0.88400
C474        C  0.61336634  0.57356849  0.51355819     0.89000
C475        C  0.57091574  0.51297696  0.61587900     0.89000
H476        H  0.41289591  0.48469922  0.53222616    -0.05200
O477        O  0.45238181  0.54822841  0.46641840    -0.74200
Mg478      Mg  0.53019761  0.43605321  0.57733160     1.58000
H479        H  0.48491626  0.53270600  0.41381890    -0.05200
C480        C  0.65412985  0.46609980  0.43088111     0.94000
O481        O  0.64623177  0.42949835  0.56488949    -0.81400
C482        C  0.63137179  0.41140370  0.59709509     0.94000
O483        O  0.56193072  0.64707614  0.42888122    -0.81400
Mg484      Mg  0.43380824  0.57649682  0.53052489     1.58200
O485        O  0.64886442  0.45646192  0.46930751    -0.79700
O486        O  0.42578061  0.56313177  0.64629970    -0.81400
C487        C  0.67021629  0.80321035  0.39195061     0.81500
N488        N  0.70108435  0.80680672  0.36255173    -0.76800
C489        C  0.71218199  0.77271971  0.33904627     0.84000
N490        N  0.69247021  0.73543239  0.34512344    -0.76700
C491        C  0.66212119  0.73187233  0.37457301     0.84100
N492        N  0.65086627  0.76572411  0.39779907    -0.78400
C493        C  0.38981688  0.66952711  0.80240157     0.81500
N494        N  0.35976046  0.69956611  0.80725348    -0.76800
C495        C  0.33489360  0.71038389  0.77408023     0.84000
N496        N  0.34031967  0.69118377  0.73637199    -0.76700
C497        C  0.37041575  0.66161088  0.73154506     0.84100
N498        N  0.39497389  0.65068470  0.76454692    -0.78400
C499        C  0.80216560  0.39022052  0.67002522     0.81500
N500        N  0.80668080  0.36008697  0.69998603    -0.76800
C501        C  0.77322322  0.33563783  0.71086315     0.84000
N502        N  0.73551314  0.34158679  0.69186207    -0.76700
C503        C  0.73102189  0.37183911  0.66238926     0.84100
N504        N  0.76433530  0.39595227  0.65136429    -0.78400
O505        O  0.51663632  0.09820226  0.55717129    -0.87000
C506        C  0.53153569  0.99096834  0.62341588     0.89000
Mg507      Mg  0.46321435  0.10734763  0.51751905     1.58100
O508        O  0.59627883  0.99749234  0.53412260    -0.86700
O509        O  0.58516709  0.09535051  0.54998774    -0.74100
C510        C  0.44105598  0.92722445  0.41396080     0.94100
O511        O  0.44649577  0.03898903  0.59850418    -0.73900
O512        O  0.41880068  0.95887459  0.42398932    -0.81400
Mg513      Mg  0.50384842  0.07723863  0.62018207     1.58000
C514        C  0.60914148  0.89597484  0.45435264     0.94000
O515        O  0.55852585  0.11631756  0.64960259    -0.79700
H516        H  0.63972127  0.02815114  0.50068985    -0.05000
C517        C  0.48970926  0.92980330  0.52150148     0.88900
O518        O  0.50084405  0.08692002  0.45940380    -0.74200
O519        O  0.54357000  0.02469009  0.60826596    -0.86900
O520        O  0.61505070  0.90512790  0.49293710    -0.79700
C521        C  0.64009268  0.94409680  0.62400968     0.94100
C522        C  0.59737235  0.11062696  0.65787620     0.94000
Mg523      Mg  0.53471973  0.96527477  0.44563771     1.58000
O524        O  0.48007986  0.92482334  0.42215436    -0.79700
O525        O  0.59260159  0.00355075  0.46551840    -0.73900
O526        O  0.63109348  0.98289257  0.62695814    -0.79700
O527        O  0.45801385  0.13036186  0.63336744    -0.81500
O528        O  0.40162768  0.05900907  0.43840935    -0.79800
C529        C  0.61105094  0.00999352  0.50037093     0.88400
O530        O  0.49456168  0.01827494  0.45568869    -0.86900
O531        O  0.52306026  0.94516149  0.50871492    -0.87000
O532        O  0.45449568  0.94744832  0.51501534    -0.74100
Mg533      Mg  0.60624257  0.03737384  0.58732330     1.58000
O534        O  0.63019375  0.92195967  0.59228533    -0.81500
H535        H  0.54914493  0.14245276  0.52668612    -0.05200
O536        O  0.44348754  0.04428125  0.52988336    -0.86700
H537        H  0.40002467  0.01350790  0.56314779    -0.05000
H538        H  0.52484462  0.05171229  0.41199386    -0.05200
C539        C  0.42852265  0.03191116  0.56356294     0.88400
C540        C  0.55004204  0.11353536  0.54441957     0.89000
C541        C  0.50696163  0.05204558  0.44084808     0.89000
H542        H  0.49067302  0.90127101  0.53979828    -0.05200
O543        O  0.53858366  0.95601930  0.60541759    -0.74200
Mg544      Mg  0.43185180  0.00464263  0.47717061     1.58000
H545        H  0.51345311  0.99134401  0.65211331    -0.05200
C546        C  0.42608100  0.13993673  0.61132221     0.94000
O547        O  0.40832491  0.11899686  0.47416255    -0.81400
C548        C  0.39276757  0.09770562  0.44421669     0.94000
O549        O  0.61854101  0.08081931  0.64192070    -0.81400
Mg550      Mg  0.57625422  0.93433761  0.54765207     1.58200
O551        O  0.42333716  0.13126979  0.57241203    -0.79700
O552        O  0.57871104  0.91084078  0.43325905    -0.81400
C553        C  0.37745574  0.74720957  0.39294048     0.81500
N554        N  0.34890211  0.74356927  0.36132898    -0.76800
C555        C  0.33979582  0.77743703  0.33673520     0.84000
N556        N  0.35899987  0.81476181  0.34416772    -0.76700
C557        C  0.38705124  0.81851750  0.37586028     0.84100
N558        N  0.39634396  0.78476983  0.40016774    -0.78400
C559        C  0.24606491  0.15992028  0.67483393     0.81500
N560        N  0.24192835  0.19201062  0.70277363    -0.76800
C561        C  0.27547588  0.21712188  0.71157388     0.84000
N562        N  0.31296730  0.20976382  0.69266208    -0.76700
C563        C  0.31721034  0.17760023  0.66521775     0.84100
N564        N  0.28376887  0.15275172  0.65621715    -0.78400
C565        C  0.66077742  0.88282246  0.80373146     0.81500
N566        N  0.69152875  0.85343162  0.80810646    -0.76800
C567        C  0.71563826  0.84267500  0.77437459     0.84000
N568        N  0.70872043  0.86121513  0.73662711    -0.76700
C569        C  0.67793873  0.89011958  0.73227357     0.84100
N570        N  0.65408550  0.90102032  0.76580127    -0.78400
C571        C  0.24098591  0.28025521  0.80291271     0.81500
N572        N  0.24194873  0.25042371  0.77237243    -0.76800
C573        C  0.27233598  0.25118021  0.74248021     0.84000
N574        N  0.30217445  0.28171046  0.74345212    -0.76700
C575        C  0.30142094  0.31160029  0.77384281     0.84100
N576        N  0.27088464  0.31063646  0.80367732    -0.78400
C577        C  0.65932471  0.92421831  0.65936857    -0.11900
C578        C  0.66986045  0.90845969  0.69204705    -0.13500
C579        C  0.39030244  0.15852904  0.63129612    -0.11900
C580        C  0.35741019  0.16895600  0.64683533    -0.13500
C581        C  0.42121185  0.89139761  0.39532176    -0.11900
C582        C  0.40563663  0.85857379  0.38473011    -0.13500
C583        C  0.63676708  0.86651263  0.43387644    -0.11900
C584        C  0.65522604  0.83923093  0.41493419    -0.13500
C585        C  0.38704269  0.62215872  0.66105481    -0.11900
C586        C  0.37657695  0.64166105  0.69170011    -0.13500
C587        C  0.40386909  0.68361161  0.43958407    -0.11900
C588        C  0.38918278  0.71134324  0.41810176    -0.13500
C589        C  0.62168059  0.66211489  0.39144216    -0.11900
C590        C  0.64154430  0.69252285  0.38116448    -0.13500
C591        C  0.69118365  0.37880006  0.64276760    -0.11900
C592        C  0.66068291  0.38999523  0.62349315    -0.13500
C593        C  0.63845636  0.15524066  0.71451273    -0.11900
C594        C  0.61833091  0.13769605  0.68748834    -0.13500
C595        C  0.36010314  0.88059984  0.91003151    -0.11900
C596        C  0.39269116  0.89192191  0.92539573    -0.13500
C597        C  0.61756367  0.91518532  0.86663427    -0.11900
C598        C  0.63695551  0.89727875  0.83935125    -0.13500
C599        C  0.66069766  0.12877467  0.89417147    -0.11900
C600        C  0.67201407  0.14413421  0.86157785    -0.13500
C601        C  0.40853708  0.19254958  0.17357282    -0.11900
C602        C  0.42389713  0.15995826  0.16225087    -0.13500
C603        C  0.91090563  0.36238611  0.87809753    -0.11900
C604        C  0.93039683  0.39303059  0.88858263    -0.13500
C605        C  0.89051911  0.66267039  0.12320944    -0.11900
C606        C  0.86010266  0.67294773  0.14305960    -0.13500
C607        C  0.16264292  0.43059453  0.16216841    -0.11900
C608        C  0.17385344  0.41132392  0.19266633    -0.13500
C609        C  0.86900486  0.61452554  0.90539838    -0.11900
C610        C  0.84128178  0.63601032  0.89070166    -0.13500
C611        C  0.65536342  0.21484207  0.13843757    -0.11900
C612        C  0.63745569  0.18755271  0.11905554    -0.13500
C613        C  0.41814660  0.39086271  0.71194436    -0.11900
C614        C  0.43952471  0.40562625  0.68421201    -0.13500
C615        C  0.71337691  0.63923698  0.15667634    -0.11900
C616        C  0.68608964  0.62030308  0.13821903    -0.13500
C617        C  0.66121752  0.65876536  0.92265014    -0.11900
C618        C  0.69404511  0.66935677  0.90708570    -0.13500
C619        C  0.41494652  0.36663763  0.11986194    -0.11900
C620        C  0.39741228  0.33961024  0.13999335    -0.13500
C621        C  0.62839153  0.39481960  0.16084983    -0.11900
C622        C  0.64416358  0.36214240  0.17136928    -0.13500
C623        C  0.43429856  0.63707628  0.86449164    -0.11900
C624        C  0.41440914  0.65498742  0.83753266    -0.13500
C625        C  0.39411760  0.42276279  0.89180190    -0.11900
C626        C  0.38368678  0.40721521  0.85891393    -0.13500
C627        C  0.33607457  0.13822168  0.39911265    -0.11900
C628        C  0.36303962  0.11832993  0.41701122    -0.13500
C629        C  0.87965305  0.91107905  0.36159555    -0.11900
C630        C  0.88992346  0.93093750  0.39200917    -0.13500
C631        C  0.12198483  0.89194184  0.66413714    -0.11900
C632        C  0.14127625  0.86145498  0.67534483    -0.13500
C633        C  0.18272757  0.11308374  0.64841047    -0.11900
C634        C  0.21045267  0.13446942  0.66317423    -0.13500
C635        C  0.19022647  0.17600074  0.41240384    -0.11900
C636        C  0.15957715  0.16551913  0.43188874    -0.13500
C637        C  0.90557831  0.86836564  0.61205484    -0.11900
C638        C  0.89055364  0.84069326  0.63333939    -0.13500
C639        C  0.11058366  0.64700216  0.18576014    -0.11900
C640        C  0.13187094  0.66203632  0.21342552    -0.13500
C641        C  0.68427407  0.44207276  0.40709628    -0.11900
C642        C  0.71195123  0.42079491  0.39207025    -0.13500
C643        C  0.15400336  0.71505905  0.63980195    -0.11900
C644        C  0.13611533  0.68790430  0.62017810    -0.13500
C645        C  0.92187000  0.66098855  0.65903122    -0.11900
C646        C  0.90625999  0.69397415  0.66890400    -0.13500
C647        C  0.13830910  0.39868209  0.33906883    -0.11900
C648        C  0.11867610  0.41657207  0.36621678    -0.13500
C649        C  0.16739192  0.64641060  0.36016159    -0.11900
C650        C  0.15751173  0.63081460  0.39315095    -0.13500
C651        C  0.86474449  0.43396223  0.63758619    -0.11900
C652        C  0.83758464  0.41433333  0.65546188    -0.13500
C653        C  0.85867631  0.38526410  0.40775016    -0.11900
C654        C  0.89166202  0.39514203  0.42335267    -0.13500
C655        C  0.36511196  0.93509456  0.13895884    -0.11900
C656        C  0.33782087  0.91570863  0.15685803    -0.13500
C657        C  0.93809407  0.14875265  0.37048283    -0.11900
C658        C  0.91661872  0.16345232  0.34275369    -0.13500
C659        C  0.16168140  0.34213456  0.91963064    -0.11900
C660        C  0.14691523  0.36985726  0.94102038    -0.13500
C661        C  0.18599997  0.93425492  0.91643117    -0.11900
C662        C  0.21303677  0.91413501  0.89889724    -0.13500
C663        C  0.15784627  0.89330656  0.12989970    -0.11900
C664        C  0.19052486  0.88278477  0.14566527    -0.13500
C665        C  0.91550301  0.18956955  0.93575411    -0.11900
C666        C  0.89759819  0.21653417  0.91586699    -0.13500
C667        C  0.14532955  0.19517864  0.88511789    -0.11900
C668        C  0.12978660  0.16228703  0.89554309    -0.13500
C669        C  0.93235242  0.91588037  0.18759781    -0.11900
C670        C  0.91340967  0.89742264  0.21488010    -0.13500
C671        C  0.89384860  0.13145227  0.16269386    -0.11900
C672        C  0.88326403  0.14703124  0.19551825    -0.13500
loop_ 
_geom_bond_atom_site_label_1 
_geom_bond_atom_site_label_2 
_geom_bond_distance 
_geom_bond_site_symmetry_2 
_ccdc_geom_bond_type 
C1            N2   1.356       .  A
C1            N6   1.359       .  A
C1          C171   1.466       .  S
N2            C3   1.359       .  A
C3            N4   1.358       .  A
C3          C567   1.467       .  S
N4            C5   1.361       .  A
C5            N6   1.357       .  A
C5          C303   1.468       .  S
C7            N8   1.358       .  A
C7           N12   1.359       .  A
C7          C105   1.467       .  S
N8            C9   1.361       .  A
C9           N10   1.357       .  A
C9          C555   1.468       .  S
N10          C11   1.359       .  A
C11          N12   1.356       .  A
C11         C165   1.466       .  S
C13          N14   1.356       .  A
C13          N18   1.359       .  A
C13         C237   1.466       .  S
N14          C15   1.359       .  A
C15          N16   1.356       .  A
C15         C357   1.466       .  S
N16          C17   1.359       .  A
C17          N18   1.356       .  A
C17         C489   1.466       .  S
C19          N20   1.356       .  A
C19          N24   1.360       .  A
C19         C431   1.467       .  S
N20          C21   1.358       .  A
C21          N22   1.357       .  A
C21         C363   1.466       .  S
N22          C23   1.359       .  A
C23          N24   1.358       .  A
C23         C231   1.469       .  S
C25          N26   1.359       .  A
C25          N30   1.358       .  A
C25         C299   1.467       .  S
N26          C27   1.356       .  A
C27          N28   1.359       .  A
C27         C161   1.466       .  S
N28          C29   1.357       .  A
C29          N30   1.361       .  A
C29          C99   1.468       .  S
C31          N32   1.356       .  A
C31          N36   1.360       .  A
C31         C425   1.467       .  S
N32          C33   1.359       .  A
C33          N34   1.357       .  A
C33         C501   1.466       .  S
N34          C35   1.359       .  A
C35          N36   1.358       .  A
C35         C369   1.469       .  S
C37          N38   1.360       .  A
C37          N42   1.356       .  A
C37         C435   1.467       .  S
N38          C39   1.358       .  A
C39          N40   1.359       .  A
C39         C495   1.469       .  S
N40          C41   1.357       .  A
C41          N42   1.358       .  A
C41         C227   1.466       .  S
O43         Mg45   2.138       .  S
O43         Mg51   2.153       .  S
O43          C78   1.238       .  S
C44          O57   1.238       .  S
C44          O81   1.271       .  A
C44          H83   1.080       .  S
Mg45         O74   2.140   1_556  S
Mg45         O89   2.290       .  S
Mg45         O85   2.258   1_455  S
Mg45         O56   2.297   1_455  S
O46         Mg88   2.152       .  S
O46         Mg71   2.140       .  S
O46          C67   1.238   1_455  S
O47          C78   1.272   1_565  A
O47         Mg71   2.296   1_556  S
C48          O50   1.272       .  A
C48          O62   1.272       .  A
C48         C671   1.432       .  S
O49          C77   1.271       .  A
O49         Mg51   2.300   1_554  S
O50         Mg82   2.271       .  S
Mg51         O57   2.131   1_556  S
Mg51         O65   2.273       .  S
Mg51         O53   2.335   1_545  S
C52          O90   1.270       .  A
C52          O58   1.276       .  A
C52         C669   1.441       .  S
O53          C60   1.277       .  A
H54          C67   1.080       .  S
C55          O69   1.237       .  S
C55          O70   1.271       .  A
C55          H80   1.080       .  S
O56          C79   1.272   1_556  A
O57         Mg71   2.142   1_545  S
O58         Mg88   2.328   1_655  S
C59          O72   1.271       .  A
C59          O64   1.271       .  A
C59         C663   1.429       .  S
C60          O87   1.270       .  A
C60         C661   1.441       .  S
Mg61         O68   2.141       .  S
Mg61         O69   2.140   1_655  S
Mg61         O62   2.289       .  S
Mg61         O63   2.298   1_545  S
Mg61         O90   2.263   1_545  S
O63          C67   1.272       .  A
O64         Mg71   2.287       .  S
O65          C84   1.273       .  A
O66          C86   1.277       .  A
O66         Mg82   2.334   1_556  S
O68         Mg82   2.154       .  S
O68          C79   1.239       .  S
O69         Mg88   2.127   1_545  S
O70         Mg82   2.300   1_455  S
Mg71         O87   2.255   1_554  S
O72         Mg88   2.264       .  S
H73          C78   1.080       .  S
O74         Mg82   2.132   1_455  S
O74          C77   1.237       .  S
H75          C77   1.080       .  S
H76          C79   1.081       .  S
O81         Mg88   2.301   1_545  S
C84          O89   1.272       .  A
C84         C668   1.432       .  S
O85          C86   1.270       .  A
C86         C665   1.441       .  S
C91          N92   1.358       .  A
C91          N96   1.361       .  A
C91         C659   1.442       .  S
N92          C93   1.357       .  A
C93          N94   1.352       .  A
C93         C667   1.434       .  S
N94          C95   1.357       .  A
C95          N96   1.363       .  A
C95         C571   1.467       .  S
C97          N98   1.361       .  A
C97         N102   1.358       .  A
C97         C658   1.444       .  S
N98          C99   1.364       .  A
C99         N100   1.357       .  A
N100        C101   1.353       .  A
C101        N102   1.357       .  A
C101        C672   1.433       .  S
C103        N104   1.362       .  A
C103        N108   1.356       .  A
C103        C656   1.439       .  S
N104        C105   1.363       .  A
C105        N106   1.357       .  A
N106        C107   1.352       .  A
C107        N108   1.355       .  A
C107        C664   1.431       .  S
O109       Mg111   2.139   1_455  S
O109       Mg117   2.153       .  S
O109        C144   1.239       .  S
C110        O123   1.237       .  S
C110        O147   1.271       .  A
C110        H149   1.080       .  S
Mg111       O140   2.140       .  S
Mg111       O155   2.285       .  S
Mg111       O151   2.257       .  S
Mg111       O122   2.297   1_655  S
O112       Mg154   2.153       .  S
O112       Mg137   2.139       .  S
O112        C133   1.239       .  S
O113        C144   1.272       .  A
O113       Mg137   2.297       .  S
C114        O116   1.272       .  A
C114        O128   1.271       .  A
C114        C645   1.430       .  S
O115        C143   1.271       .  A
O115       Mg117   2.299   1_655  S
O116       Mg148   2.268       .  S
Mg117       O123   2.128       .  S
Mg117       O131   2.268   1_455  S
Mg117       O119   2.330       .  S
C118        O156   1.270       .  A
C118        O124   1.277       .  A
C118        C644   1.440       .  S
O119        C126   1.277       .  A
H120        C133   1.080       .  S
C121        O135   1.237   1_655  S
C121        O136   1.271       .  A
C121        H146   1.080       .  S
O122        C145   1.272       .  A
O123       Mg137   2.140       .  S
O124       Mg154   2.330       .  S
C125        O138   1.272       .  A
C125        O130   1.271       .  A
C125        C650   1.430       .  S
C126        O153   1.270       .  A
C126        C648   1.440       .  S
Mg127       O134   2.139   1_455  S
Mg127       O135   2.140       .  S
Mg127       O128   2.286   1_455  S
Mg127       O129   2.297       .  S
Mg127       O156   2.257       .  S
O129        C133   1.272       .  A
O130       Mg137   2.285       .  S
O131        C150   1.272       .  A
O132        C152   1.277       .  A
O132       Mg148   2.330       .  S
O134       Mg148   2.153       .  S
O134        C145   1.239   1_655  S
O135       Mg154   2.128       .  S
O136       Mg148   2.299       .  S
Mg137       O153   2.257       .  S
O138       Mg154   2.268       .  S
H139        C144   1.080       .  S
O140       Mg148   2.128       .  S
O140        C143   1.237       .  S
H141        C143   1.080       .  S
H142        C145   1.080       .  S
O147       Mg154   2.299       .  S
C150        O155   1.271       .  A
C150        C654   1.430       .  S
O151        C152   1.270       .  A
C152        C651   1.440       .  S
C157        N158   1.358       .  A
C157        N162   1.361       .  A
C157        C642   1.442       .  S
N158        C159   1.357       .  A
C159        N160   1.352       .  A
C159        C653   1.432       .  S
N160        C161   1.356       .  A
C161        N162   1.363       .  A
C163        N164   1.361       .  A
C163        N168   1.358       .  A
C163        C640   1.442       .  S
N164        C165   1.363       .  A
C165        N166   1.356       .  A
N166        C167   1.352       .  A
C167        N168   1.357       .  A
C167        C649   1.432       .  S
C169        N170   1.361       .  A
C169        N174   1.358       .  A
C169        C638   1.442       .  S
N170        C171   1.363       .  A
C171        N172   1.356       .  A
N172        C173   1.352       .  A
C173        N174   1.357       .  A
C173        C646   1.432       .  S
O175       Mg177   2.119   1_655  S
O175       Mg183   2.141       .  S
O175        C210   1.237   1_655  S
C176        O189   1.239       .  S
C176        O213   1.274       .  A
C176        H215   1.079       .  S
Mg177       O206   2.149       .  S
Mg177       O221   2.297   1_455  S
Mg177       O217   2.230       .  S
Mg177       O188   2.294       .  S
O178       Mg220   2.139       .  S
O178       Mg203   2.116   1_455  S
O178        C199   1.236       .  S
O179        C210   1.270       .  A
O179       Mg203   2.295   1_465  S
C180        O182   1.273       .  A
C180        O194   1.272       .  A
C180        C633   1.441       .  S
O181        C209   1.273       .  A
O181       Mg183   2.305   1_545  S
O182       Mg214   2.292       .  S
Mg183       O189   2.154   1_565  S
Mg183       O197   2.292       .  S
Mg183       O185   2.316       .  S
C184        O222   1.267       .  A
C184        O190   1.276       .  A
C184        C636   1.429       .  S
O185        C192   1.275       .  A
H186        C199   1.080       .  S
C187        O201   1.239       .  S
C187        O202   1.274       .  A
C187        H212   1.079       .  S
O188        C211   1.269       .  A
O189       Mg203   2.148       .  S
O190       Mg220   2.324       .  S
C191        O204   1.274       .  A
C191        O196   1.272       .  A
C191        C657   1.444       .  S
C192        O219   1.267       .  A
C192        C630   1.427       .  S
Mg193       O200   2.121       .  S
Mg193       O201   2.149       .  S
Mg193       O194   2.296       .  S
Mg193       O195   2.294       .  S
Mg193       O222   2.231       .  S
O195        C199   1.270       .  A
O196       Mg203   2.298       .  S
O197        C216   1.273       .  A
O198        C218   1.276       .  A
O198       Mg214   2.324   1_565  S
O200       Mg214   2.141       .  S
O200        C211   1.236   1_545  S
O201       Mg220   2.156       .  S
O202       Mg214   2.308       .  S
Mg203       O219   2.227   1_545  S
O204       Mg220   2.298   1_655  S
H205        C210   1.080       .  S
O206       Mg214   2.152   1_565  S
O206        C209   1.239   1_465  S
H207        C209   1.079       .  S
H208        C211   1.080       .  S
O213       Mg220   2.307   1_655  S
C216        O221   1.272       .  A
C216        C637   1.442       .  S
O217        C218   1.267       .  A
C218        C631   1.429       .  S
C223        N224   1.355       .  A
C223        N228   1.361       .  A
C223        C643   1.440       .  S
N224        C225   1.355       .  A
C225        N226   1.352       .  A
C225        C632   1.431       .  S
N226        C227   1.358       .  A
C227        N228   1.364       .  A
C229        N230   1.362       .  A
C229        N234   1.356       .  A
C229        C627   1.442       .  S
N230        C231   1.364       .  A
C231        N232   1.358       .  A
N232        C233   1.352       .  A
C233        N234   1.355       .  A
C233        C635   1.432       .  S
C235        N236   1.362       .  A
C235        N240   1.356       .  A
C235        C670   1.441       .  S
N236        C237   1.364       .  A
C237        N238   1.356       .  A
N238        C239   1.351       .  A
C239        N240   1.355       .  A
C239        C629   1.429       .  S
O241       Mg243   2.138   1_554  S
O241       Mg249   2.153       .  S
O241        C276   1.238       .  S
C242        O255   1.238       .  S
C242        O279   1.271       .  A
C242        H281   1.080       .  S
Mg243       O272   2.140       .  S
Mg243       O287   2.290       .  S
Mg243       O283   2.258       .  S
Mg243       O254   2.297   1_556  S
O244       Mg286   2.152       .  S
O244       Mg269   2.140       .  S
O244        C265   1.238       .  S
O245        C276   1.272       .  A
O245       Mg269   2.296       .  S
C246        O248   1.272       .  A
C246        O260   1.272       .  A
C246        C617   1.432       .  S
O247        C275   1.271       .  A
O247       Mg249   2.300   1_556  S
O248       Mg280   2.271       .  S
Mg249       O255   2.131       .  S
Mg249       O263   2.273   1_554  S
Mg249       O251   2.335       .  S
C250        O288   1.270       .  A
C250        O256   1.276       .  A
C250        C616   1.441       .  S
O251        C258   1.277       .  A
H252        C265   1.080       .  S
C253        O267   1.237   1_556  S
C253        O268   1.271       .  A
C253        H278   1.080       .  S
O254        C277   1.272       .  A
O255       Mg269   2.142       .  S
O256       Mg286   2.328       .  S
C257        O270   1.271       .  A
C257        O262   1.271       .  A
C257        C621   1.429       .  S
C258        O285   1.270       .  A
C258        C619   1.441       .  S
Mg259       O266   2.141   1_554  S
Mg259       O267   2.140       .  S
Mg259       O260   2.289   1_554  S
Mg259       O261   2.298       .  S
Mg259       O288   2.263       .  S
O261        C265   1.272       .  A
O262       Mg269   2.287       .  S
O263        C282   1.273       .  A
O264        C284   1.277       .  A
O264       Mg280   2.334       .  S
O266       Mg280   2.154       .  S
O266        C277   1.239   1_556  S
O267       Mg286   2.127       .  S
O268       Mg280   2.300       .  S
Mg269       O285   2.255       .  S
O270       Mg286   2.264       .  S
H271        C276   1.080       .  S
O272       Mg280   2.132       .  S
O272        C275   1.237       .  S
H273        C275   1.080       .  S
H274        C277   1.081       .  S
O279       Mg286   2.301       .  S
C282        O287   1.272       .  A
C282        C625   1.432       .  S
O283        C284   1.270       .  A
C284        C623   1.442       .  S
C289        N290   1.358       .  A
C289        N294   1.361       .  A
C289        C613   1.442       .  S
N290        C291   1.357       .  A
C291        N292   1.352       .  A
C291        C626   1.434       .  S
N292        C293   1.357       .  A
C293        N294   1.363       .  A
C293        C575   1.467       .  S
C295        N296   1.356       .  A
C295        N300   1.362       .  A
C295        C611   1.439       .  S
N296        C297   1.355       .  A
C297        N298   1.352       .  A
C297        C622   1.431       .  S
N298        C299   1.357       .  A
C299        N300   1.363       .  A
C301        N302   1.361       .  A
C301        N306   1.358       .  A
C301        C610   1.444       .  S
N302        C303   1.364       .  A
C303        N304   1.357       .  A
N304        C305   1.353       .  A
C305        N306   1.357       .  A
C305        C618   1.433       .  S
O307       Mg309   2.119       .  S
O307       Mg315   2.141       .  S
O307        C342   1.237   1_455  S
C308        O321   1.239   1_456  S
C308        O345   1.274       .  A
C308        H347   1.079       .  S
Mg309       O338   2.149       .  S
Mg309       O353   2.297       .  S
Mg309       O349   2.230       .  S
Mg309       O320   2.294       .  S
O310       Mg352   2.139       .  S
O310       Mg335   2.116   1_556  S
O310        C331   1.236   1_556  S
O311        C342   1.270       .  A
O311       Mg335   2.295       .  S
C312        O314   1.273       .  A
C312        O326   1.272       .  A
C312        C660   1.441       .  S
O313        C341   1.273       .  A
O313       Mg315   2.305       .  S
O314       Mg346   2.292   1_556  S
Mg315       O321   2.154   1_455  S
Mg315       O329   2.292       .  S
Mg315       O317   2.316   1_455  S
C316        O354   1.267       .  A
C316        O322   1.276       .  A
C316        C604   1.429       .  S
O317        C324   1.275       .  A
H318        C331   1.080       .  S
C319        O333   1.239       .  S
C319        O334   1.274       .  A
C319        H344   1.079       .  S
O320        C343   1.269       .  A
O321       Mg335   2.148       .  S
O322       Mg352   2.324       .  S
C323        O336   1.274       .  A
C323        O328   1.272       .  A
C323        C609   1.444       .  S
C324        O351   1.267       .  A
C324        C605   1.427       .  S
Mg325       O332   2.121   1_556  S
Mg325       O333   2.149       .  S
Mg325       O326   2.296       .  S
Mg325       O327   2.294   1_456  S
Mg325       O354   2.231   1_455  S
O327        C331   1.270       .  A
O328       Mg335   2.298   1_556  S
O329        C348   1.273       .  A
O330        C350   1.276       .  A
O330       Mg346   2.323       .  S
O332       Mg346   2.141       .  S
O332        C343   1.236       .  S
O333       Mg352   2.156   1_455  S
O334       Mg346   2.307   1_556  S
Mg335       O351   2.227       .  S
O336       Mg352   2.298       .  S
H337        C342   1.080       .  S
O338       Mg346   2.152       .  S
O338        C341   1.239       .  S
H339        C341   1.079       .  S
H340        C343   1.080       .  S
O345       Mg352   2.307   1_455  S
C348        O353   1.272       .  A
C348        C639   1.442       .  S
O349        C350   1.267       .  A
C350        C607   1.429       .  S
C355        N356   1.362       .  A
C355        N360   1.356       .  A
C355        C615   1.441       .  S
N356        C357   1.364       .  A
C357        N358   1.356       .  A
N358        C359   1.351       .  A
C359        N360   1.355       .  A
C359        C606   1.429       .  S
C361        N362   1.361       .  A
C361        N366   1.355       .  A
C361        C647   1.440       .  S
N362        C363   1.364       .  A
C363        N364   1.358       .  A
N364        C365   1.352       .  A
C365        N366   1.355       .  A
C365        C608   1.431       .  S
C367        N368   1.362       .  A
C367        N372   1.356       .  A
C367        C666   1.442       .  S
N368        C369   1.364       .  A
C369        N370   1.358       .  A
N370        C371   1.352       .  A
C371        N372   1.355       .  A
C371        C603   1.432       .  S
O373       Mg375   2.137       .  S
O373       Mg381   2.153       .  S
O373        C408   1.238       .  S
C374        O387   1.237   1_556  S
C374        O411   1.271       .  A
C374        H413   1.080       .  S
Mg375       O404   2.143       .  S
Mg375       O419   2.284       .  S
Mg375       O415   2.255       .  S
Mg375       O386   2.295       .  S
O376       Mg418   2.153       .  S
O376       Mg401   2.137   1_556  S
O376        C397   1.238   1_556  S
O377        C408   1.271   1_565  A
O377       Mg401   2.295       .  S
C378        O380   1.271       .  A
C378        O392   1.271       .  A
C378        C599   1.429       .  S
O379        C407   1.271       .  A
O379       Mg381   2.300       .  S
O380       Mg412   2.264   1_556  S
Mg381       O387   2.130       .  S
Mg381       O395   2.264       .  S
Mg381       O383   2.327   1_545  S
C382        O420   1.270       .  A
C382        O388   1.276       .  A
C382        C597   1.439       .  S
O383        C390   1.276       .  A
H384        C397   1.080       .  S
C385        O399   1.237       .  S
C385        O400   1.271       .  A
C385        H410   1.080       .  S
O386        C409   1.271       .  A
O387       Mg401   2.143   1_545  S
O388       Mg418   2.327       .  S
C389        O402   1.271       .  A
C389        O394   1.271       .  A
C389        C596   1.429       .  S
C390        O417   1.270       .  A
C390        C655   1.439       .  S
Mg391       O398   2.137   1_556  S
Mg391       O399   2.143       .  S
Mg391       O392   2.284       .  S
Mg391       O393   2.295   1_546  S
Mg391       O420   2.255   1_545  S
O393        C397   1.271       .  A
O394       Mg401   2.284   1_556  S
O395        C414   1.271       .  A
O396        C416   1.276       .  A
O396       Mg412   2.327       .  S
O398       Mg412   2.153       .  S
O398        C409   1.238       .  S
O399       Mg418   2.130   1_545  S
O400       Mg412   2.300   1_556  S
Mg401       O417   2.255       .  S
O402       Mg418   2.264       .  S
H403        C408   1.080       .  S
O404       Mg412   2.130       .  S
O404        C407   1.237       .  S
H405        C407   1.080       .  S
H406        C409   1.080       .  S
O411       Mg418   2.300   1_545  S
C414        O419   1.271       .  A
C414        C602   1.428       .  S
O415        C416   1.270       .  A
C416        C612   1.439       .  S
C421        N422   1.356       .  A
C421        N426   1.361       .  A
C421        C593   1.441       .  S
N422        C423   1.355       .  A
C423        N424   1.352       .  A
C423        C600   1.430       .  S
N424        C425   1.357       .  A
C425        N426   1.364       .  A
C427        N428   1.356       .  A
C427        N432   1.361       .  A
C427        C620   1.441       .  S
N428        C429   1.355       .  A
C429        N430   1.352       .  A
C429        C601   1.430       .  S
N430        C431   1.357       .  A
C431        N432   1.364       .  A
C433        N434   1.361       .  A
C433        N438   1.356       .  A
C433        C662   1.441       .  S
N434        C435   1.364       .  A
C435        N436   1.357       .  A
N436        C437   1.352       .  A
C437        N438   1.355       .  A
C437        C595   1.430       .  S
O439       Mg441   2.119       .  S
O439       Mg447   2.141       .  S
O439        C474   1.237       .  S
C440        O453   1.239       .  S
C440        O477   1.274       .  A
C440        H479   1.079       .  S
Mg441       O470   2.149       .  S
Mg441       O485   2.297       .  S
Mg441       O481   2.230       .  S
Mg441       O452   2.294       .  S
O442       Mg484   2.139       .  S
O442       Mg467   2.116       .  S
O442        C463   1.236       .  S
O443        C474   1.270       .  A
O443       Mg467   2.295       .  S
C444        O446   1.273       .  A
C444        O458   1.272       .  A
C444        C614   1.441       .  S
O445        C473   1.273       .  A
O445       Mg447   2.305       .  S
O446       Mg478   2.292       .  S
Mg447       O453   2.154       .  S
Mg447       O461   2.292       .  S
Mg447       O449   2.316       .  S
C448        O486   1.267       .  A
C448        O454   1.276       .  A
C448        C585   1.429       .  S
O449        C456   1.275       .  A
H450        C463   1.080       .  S
C451        O465   1.239       .  S
C451        O466   1.274       .  A
C451        H476   1.079       .  S
O452        C475   1.269       .  A
O453       Mg467   2.148       .  S
O454       Mg484   2.324       .  S
C455        O468   1.274       .  A
C455        O460   1.272       .  A
C455        C587   1.444       .  S
C456        O483   1.267       .  A
C456        C589   1.427       .  S
Mg457       O464   2.121       .  S
Mg457       O465   2.149       .  S
Mg457       O458   2.296       .  S
Mg457       O459   2.294       .  S
Mg457       O486   2.231       .  S
O459        C463   1.270       .  A
O460       Mg467   2.298       .  S
O461        C480   1.273       .  A
O462        C482   1.276       .  A
O462       Mg478   2.324       .  S
O464       Mg478   2.141       .  S
O464        C475   1.236       .  S
O465       Mg484   2.156       .  S
O466       Mg478   2.308       .  S
Mg467       O483   2.227       .  S
O468       Mg484   2.298       .  S
H469        C474   1.080       .  S
O470       Mg478   2.152       .  S
O470        C473   1.239       .  S
H471        C473   1.079       .  S
H472        C475   1.080       .  S
O477       Mg484   2.307       .  S
C480        O485   1.272       .  A
C480        C641   1.442       .  S
O481        C482   1.267       .  A
C482        C592   1.429       .  S
C487        N488   1.362       .  A
C487        N492   1.356       .  A
C487        C584   1.441       .  S
N488        C489   1.364       .  A
C489        N490   1.356       .  A
N490        C491   1.351       .  A
C491        N492   1.355       .  A
C491        C590   1.429       .  S
C493        N494   1.362       .  A
C493        N498   1.356       .  A
C493        C624   1.442       .  S
N494        C495   1.364       .  A
C495        N496   1.358       .  A
N496        C497   1.352       .  A
C497        N498   1.355       .  A
C497        C586   1.432       .  S
C499        N500   1.361       .  A
C499        N504   1.355       .  A
C499        C652   1.440       .  S
N500        C501   1.364       .  A
C501        N502   1.358       .  A
N502        C503   1.352       .  A
C503        N504   1.355       .  A
C503        C591   1.431       .  S
O505       Mg507   2.138       .  S
O505       Mg513   2.153       .  S
O505        C540   1.238       .  S
C506        O519   1.238   1_565  S
C506        O543   1.271       .  A
C506        H545   1.080       .  S
Mg507       O536   2.140       .  S
Mg507       O551   2.290       .  S
Mg507       O547   2.258       .  S
Mg507       O518   2.297       .  S
O508       Mg550   2.152       .  S
O508       Mg533   2.140   1_565  S
O508        C529   1.238   1_565  S
O509        C540   1.272       .  A
O509       Mg533   2.296       .  S
C510        O512   1.272       .  A
C510        O524   1.272       .  A
C510        C581   1.432       .  S
O511        C539   1.271       .  A
O511       Mg513   2.300       .  S
O512       Mg544   2.271   1_565  S
Mg513       O519   2.131       .  S
Mg513       O527   2.273       .  S
Mg513       O515   2.335       .  S
C514        O552   1.270       .  A
C514        O520   1.276       .  A
C514        C583   1.441       .  S
O515        C522   1.277       .  A
H516        C529   1.080       .  S
C517        O531   1.237       .  S
C517        O532   1.271       .  A
C517        H542   1.080       .  S
O518        C541   1.272       .  A
O519       Mg533   2.142       .  S
O520       Mg550   2.328       .  S
C521        O534   1.271       .  A
C521        O526   1.271       .  A
C521        C577   1.429       .  S
C522        O549   1.270       .  A
C522        C594   1.441       .  S
Mg523       O530   2.141   1_565  S
Mg523       O531   2.140       .  S
Mg523       O524   2.289       .  S
Mg523       O525   2.298   1_565  S
Mg523       O552   2.263       .  S
O525        C529   1.272       .  A
O526       Mg533   2.287   1_565  S
O527        C546   1.273       .  A
O528        C548   1.277       .  A
O528       Mg544   2.334       .  S
O530       Mg544   2.154       .  S
O530        C541   1.239       .  S
O531       Mg550   2.127       .  S
O532       Mg544   2.300   1_565  S
Mg533       O549   2.255       .  S
O534       Mg550   2.264       .  S
H535        C540   1.080       .  S
O536       Mg544   2.132       .  S
O536        C539   1.237       .  S
H537        C539   1.080       .  S
H538        C541   1.080       .  S
O543       Mg550   2.301       .  S
C546        O551   1.272       .  A
C546        C579   1.432       .  S
O547        C548   1.270       .  A
C548        C628   1.442       .  S
C553        N554   1.361       .  A
C553        N558   1.358       .  A
C553        C588   1.444       .  S
N554        C555   1.364       .  A
C555        N556   1.357       .  A
N556        C557   1.353       .  A
C557        N558   1.357       .  A
C557        C582   1.434       .  S
C559        N560   1.361       .  A
C559        N564   1.358       .  A
C559        C634   1.442       .  S
N560        C561   1.363       .  A
C561        N562   1.357       .  A
C561        C573   1.467       .  S
N562        C563   1.352       .  A
C563        N564   1.357       .  A
C563        C580   1.434       .  S
C565        N566   1.362       .  A
C565        N570   1.356       .  A
C565        C598   1.439       .  S
N566        C567   1.363       .  A
C567        N568   1.357       .  A
N568        C569   1.352       .  A
C569        N570   1.355       .  A
C569        C578   1.431       .  S
C571        N572   1.359       .  A
C571        N576   1.357       .  A
N572        C573   1.357       .  A
C573        N574   1.359       .  A
N574        C575   1.357       .  A
C575        N576   1.359       .  A
C577        C578   1.203       .  T
C579        C580   1.205       .  T
C581        C582   1.204       .  T
C583        C584   1.209       .  T
C585        C586   1.203       .  T
C587        C588   1.211       .  T
C589        C590   1.201       .  T
C591        C592   1.203       .  T
C593        C594   1.209       .  T
C595        C596   1.202       .  T
C597        C598   1.208       .  T
C599        C600   1.202       .  T
C601        C602   1.202       .  T
C603        C604   1.203       .  T
C605        C606   1.201       .  T
C607        C608   1.203       .  T
C609        C610   1.211       .  T
C611        C612   1.208       .  T
C613        C614   1.210       .  T
C615        C616   1.209       .  T
C617        C618   1.204       .  T
C619        C620   1.209       .  T
C621        C622   1.203       .  T
C623        C624   1.210       .  T
C625        C626   1.205       .  T
C627        C628   1.210       .  T
C629        C630   1.201       .  T
C631        C632   1.203       .  T
C633        C634   1.210       .  T
C635        C636   1.203       .  T
C637        C638   1.210       .  T
C639        C640   1.210       .  T
C641        C642   1.210       .  T
C643        C644   1.209       .  T
C645        C646   1.203       .  T
C647        C648   1.209       .  T
C649        C650   1.203       .  T
C651        C652   1.209       .  T
C653        C654   1.203       .  T
C655        C656   1.208       .  T
C657        C658   1.211       .  T
C659        C660   1.210       .  T
C661        C662   1.209       .  T
C663        C664   1.203       .  T
C665        C666   1.210       .  T
C667        C668   1.205       .  T
C669        C670   1.209       .  T
C671        C672   1.204       .  T
