geometry optimzed in LAMMPS
_audit_creation_date              2020-11-30 
_audit_creation_method            'lammps2cif' 
_symmetry_space_group_name_H-M    'P1' 
_symmetry_Int_Tables_number       1 
_symmetry_cell_setting            triclinic 
loop_ 
_symmetry_equiv_pos_as_xyz 
  x,y,z 
_cell_length_a                    65.96264124 
_cell_length_b                    65.85755218003541 
_cell_length_c                    50.72614901125218 
_cell_angle_alpha                 89.66523270221963 
_cell_angle_beta                  89.89843787922575 
_cell_angle_gamma                 122.17732976940117 
loop_ 
_atom_site_label 
_atom_site_type_symbol 
_atom_site_fract_x 
_atom_site_fract_y 
_atom_site_fract_z 
_atom_site_charge 
C1          C  0.52860786  0.62953632  0.34028762     0.86400
C2          C  0.50579300  0.60491764  0.34446745    -0.53800
C3          C  0.50608166  0.58616848  0.33408571     0.09300
C4          C  0.53009648  0.59362174  0.32089579     0.20300
C5          C  0.54853119  0.62667769  0.35253808    -0.54500
C6          C  0.54929194  0.60787944  0.34197525     0.09400
C7          C  0.53441105  0.63170613  0.31061882    -0.54100
C8          C  0.53421536  0.61257080  0.30017970     0.10000
H9          H  0.48978592  0.60266425  0.35364245     0.14500
H10         H  0.53112739  0.57860872  0.31278294     0.00300
H11         H  0.56163717  0.63885471  0.36666795     0.14800
H12         H  0.53892463  0.64734552  0.29885237     0.14600
C13         C  0.52692299  0.62458873  0.14703938     0.86400
C14         C  0.53731793  0.63090497  0.17510884    -0.53800
C15         C  0.53959909  0.61355363  0.18706490     0.09300
C16         C  0.53229856  0.59183450  0.16953503     0.20300
C17         C  0.54468572  0.61968028  0.13234112    -0.54500
C18         C  0.54728053  0.60248711  0.14442972     0.09400
C19         C  0.50388920  0.59963235  0.14952069    -0.54100
C20         C  0.50656572  0.58268349  0.16145823     0.10000
H21         H  0.54151972  0.64711408  0.18519918     0.14500
H22         H  0.53449795  0.57789479  0.17909877     0.00300
H23         H  0.55508984  0.62917841  0.11498602     0.14800
H24         H  0.48666136  0.59564995  0.14222681     0.14600
C25         C  0.62086578  0.53978568  0.33757526     0.86400
C26         C  0.62650216  0.54659084  0.30788242    -0.53800
C27         C  0.60957662  0.54880899  0.29490817     0.09300
C28         C  0.58862639  0.54422521  0.31264492     0.20300
C29         C  0.61749836  0.55965987  0.34862494    -0.54500
C30         C  0.60028277  0.56151806  0.33583908     0.09400
C31         C  0.59563039  0.51707074  0.33732627    -0.54100
C32         C  0.57896767  0.51914635  0.32406507     0.10000
H33         H  0.64136724  0.54808818  0.29708050     0.14500
H34         H  0.57481890  0.54599367  0.30224002     0.00300
H35         H  0.62781835  0.57141928  0.36465660     0.14800
H36         H  0.59147324  0.50013204  0.34603586     0.14600
C37         C  0.61546269  0.53089078  0.13793484     0.86400
C38         C  0.59025558  0.50842730  0.13626858    -0.53800
C39         C  0.57294376  0.50963957  0.14915243     0.09300
C40         C  0.58227196  0.53353788  0.16328668     0.20300
C41         C  0.61288640  0.55185577  0.12872029    -0.54500
C42         C  0.59536634  0.55298470  0.14187502     0.09400
C43         C  0.61978581  0.53515945  0.16806722    -0.54100
C44         C  0.60228347  0.53621781  0.18137993     0.10000
H45         H  0.58651049  0.49210811  0.12652765     0.14500
H46         H  0.56825997  0.53500488  0.17355311     0.00300
H47         H  0.62406950  0.56490009  0.11375770     0.14800
H48         H  0.63518487  0.53759194  0.17849775     0.14600
C49         C  0.37088430  0.47495633  0.32907263     0.86400
C50         C  0.36830915  0.46910416  0.29935679    -0.53800
C51         C  0.38772529  0.47011224  0.28816396     0.09300
C52         C  0.40729896  0.47511469  0.30816422     0.20300
C53         C  0.37518636  0.45583363  0.34100274    -0.54500
C54         C  0.39426505  0.45611347  0.32992990     0.09400
C55         C  0.39505048  0.49855330  0.33191312    -0.54100
C56         C  0.41396559  0.49890921  0.32080232     0.10000
H57         H  0.35242058  0.46385555  0.28805323     0.14500
H58         H  0.42261112  0.47474916  0.29977748     0.00300
H59         H  0.36375710  0.44251831  0.35565721     0.14800
H60         H  0.39702769  0.51400188  0.34207115     0.14600
C61         C  0.37972794  0.47385540  0.13193411     0.86400
C62         C  0.40557080  0.49574861  0.13417081    -0.53800
C63         C  0.42095351  0.49184433  0.14786709     0.09300
C64         C  0.40905692  0.46598124  0.15818927     0.20300
C65         C  0.38247194  0.45399022  0.12014024    -0.54500
C66         C  0.39777597  0.44996671  0.13387799     0.09400
C67         C  0.37272770  0.46673152  0.16119975    -0.54100
C68         C  0.38782496  0.46218571  0.17474310     0.10000
H69         H  0.41088315  0.51354285  0.12710427     0.14500
H70         H  0.42130819  0.46245501  0.16946719     0.00300
H71         H  0.37348887  0.44432191  0.10234074     0.14800
H72         H  0.35965358  0.46882780  0.17163902     0.14600
C73         C  0.46623632  0.38866551  0.34002650     0.86400
C74         C  0.48928854  0.41382017  0.33953114    -0.53800
C75         C  0.48799525  0.43070780  0.32529438     0.09300
C76         C  0.46372356  0.42090124  0.31204537     0.20300
C77         C  0.44633137  0.39263035  0.34921991    -0.54500
C78         C  0.44517905  0.40954604  0.33466345     0.09400
C79         C  0.46047929  0.38250440  0.31048665    -0.54100
C80         C  0.46013558  0.39972030  0.29580639     0.10000
H81         H  0.50573483  0.41777517  0.34908536     0.14500
H82         H  0.46270830  0.43449721  0.30004918     0.00300
H83         H  0.43373448  0.38249092  0.36496820     0.14800
H84         H  0.45736112  0.36646839  0.30091115     0.14600
C85         C  0.46138377  0.37549521  0.14214277     0.86400
C86         C  0.45168162  0.37089419  0.17068992    -0.53800
C87         C  0.45156349  0.38970657  0.18200857     0.09300
C88         C  0.45949803  0.41085379  0.16276203     0.20300
C89         C  0.44435693  0.38111491  0.12745931    -0.54500
C90         C  0.44358634  0.39967147  0.13823807     0.09400
C91         C  0.48532037  0.39967239  0.14262007    -0.54100
C92         C  0.48457576  0.41791925  0.15375465     0.10000
H93         H  0.44650607  0.35474416  0.18176358     0.14500
H94         H  0.45914324  0.42614462  0.17121372     0.00300
H95         H  0.43304187  0.37107489  0.11101828     0.14800
H96         H  0.50165154  0.40221839  0.13409381     0.14600
C97         C  0.90578751  0.53087385  0.33340151     0.86400
C98         C  0.90737744  0.50843313  0.33467336    -0.53800
C99         C  0.92609573  0.50994516  0.32123537     0.09300
C100        C  0.94187209  0.53429506  0.30729549     0.20300
C101        C  0.93046596  0.55163777  0.34252168    -0.54500
C102        C  0.94919085  0.55315445  0.32905351     0.09400
C103        C  0.90582702  0.53550473  0.30343005    -0.54100
C104        C  0.92456916  0.53713730  0.29009439     0.10000
H105        H  0.89399923  0.49209720  0.34483322     0.14500
H106        H  0.95694995  0.53594091  0.29565706     0.00300
H107        H  0.93303774  0.56420109  0.35783310     0.14800
H108        H  0.89253153  0.53703011  0.29275283     0.14600
C109        C  0.90351931  0.53516432  0.13713736     0.86400
C110        C  0.90731049  0.54441290  0.16554165    -0.53800
C111        C  0.92709497  0.54710824  0.17742567     0.09300
C112        C  0.94236525  0.54183232  0.15937805     0.20300
C113        C  0.92704819  0.55426802  0.12284458    -0.54500
C114        C  0.94721766  0.55750769  0.13476884     0.09400
C115        C  0.90542301  0.51288213  0.13808739    -0.54100
C116        C  0.92555025  0.51631433  0.14961316     0.10000
H117        H  0.89469554  0.54714531  0.17613457     0.14500
H118        H  0.95878961  0.54455689  0.16892347     0.00300
H119        H  0.92822803  0.56407082  0.10511651     0.14800
H120        H  0.89184615  0.49561755  0.13006385     0.14600
C121        C  0.09294600  0.62653967  0.33122536     0.86400
C122        C  0.09290707  0.63339404  0.30205039    -0.53800
C123        C  0.07458850  0.61579861  0.28746153     0.09300
C124        C  0.05643276  0.59383937  0.30404348     0.20300
C125        C  0.06863270  0.62149057  0.34122631    -0.54500
C126        C  0.04963994  0.60432310  0.32713377     0.09400
C127        C  0.09043888  0.60199345  0.33026756    -0.54100
C128        C  0.07149948  0.58497942  0.31636515     0.10000
H129        H  0.10565330  0.65068211  0.29334628     0.14500
H130        H  0.04088307  0.57971003  0.29282968     0.00300
H131        H  0.06643612  0.63109171  0.35710224     0.14800
H132        H  0.10277404  0.59827302  0.34010040     0.14600
C133        C  0.09042488  0.63139359  0.13206178     0.86400
C134        C  0.09098570  0.60869596  0.13741233    -0.53800
C135        C  0.07219383  0.59127998  0.15163785     0.09300
C136        C  0.05380663  0.59772182  0.15892011     0.20300
C137        C  0.06605037  0.62214568  0.11864983    -0.54500
C138        C  0.04703959  0.60454367  0.13271163     0.09400
C139        C  0.08674316  0.63938627  0.15920047    -0.54100
C140        C  0.06841996  0.62147676  0.17390697     0.10000
H141        H  0.10526191  0.60654564  0.13020399     0.14500
H142        H  0.03825002  0.58332966  0.17016813     0.00300
H143        H  0.06355074  0.62959766  0.10073356     0.14800
H144        H  0.09811225  0.65715866  0.16709073     0.14600
C145        C  0.89866398  0.37880465  0.34419791     0.86400
C146        C  0.89801909  0.37144529  0.31502981    -0.53800
C147        C  0.91728596  0.38801077  0.30023520     0.09300
C148        C  0.93529632  0.41038427  0.31569086     0.20300
C149        C  0.92281290  0.38367655  0.35415744    -0.54500
C150        C  0.94189513  0.40064448  0.33969585     0.09400
C151        C  0.90160716  0.40350725  0.34189934    -0.54100
C152        C  0.92013844  0.41974015  0.32655451     0.10000
H153        H  0.88325648  0.35583723  0.30573760     0.14500
H154        H  0.95081012  0.42411472  0.30386024     0.00300
H155        H  0.92474393  0.37504815  0.37143940     0.14800
H156        H  0.88915847  0.40753883  0.35082771     0.14600
C157        C  0.89986067  0.38611441  0.14245303     0.86400
C158        C  0.90268807  0.41080394  0.14351441    -0.53800
C159        C  0.92129905  0.42755595  0.15818880     0.09300
C160        C  0.93533821  0.41790181  0.17162827     0.20300
C161        C  0.92463441  0.39121397  0.13381108    -0.54500
C162        C  0.94311003  0.40796014  0.14898871     0.09400
C163        C  0.89826121  0.37873026  0.17166883    -0.54100
C164        C  0.91625954  0.39556343  0.18695409     0.10000
H165        H  0.89109489  0.41496038  0.13270966     0.14500
H166        H  0.95047267  0.43141228  0.18383533     0.00300
H167        H  0.92737734  0.38203663  0.11786751     0.14800
H168        H  0.88485055  0.36167222  0.18019828     0.14600
C169        C  0.08549734  0.47561440  0.34640363     0.86400
C170        C  0.08339584  0.49789490  0.34668268    -0.53800
C171        C  0.06456722  0.49550971  0.33289699     0.09300
C172        C  0.04932883  0.47092082  0.31985306     0.20300
C173        C  0.06104026  0.45478847  0.35609605    -0.54500
C174        C  0.04227297  0.45236028  0.34211443     0.09400
C175        C  0.08640963  0.47157477  0.31652686    -0.54100
C176        C  0.06722483  0.46861294  0.30281586     0.10000
H177        H  0.09679459  0.51487607  0.35538585     0.14500
H178        H  0.03387675  0.46885252  0.30864140     0.00300
H179        H  0.05877405  0.44316919  0.37259599     0.14800
H180        H  0.10180884  0.47367380  0.30625996     0.14600
C181        C  0.08798343  0.48013901  0.14480349     0.86400
C182        C  0.08895493  0.47713082  0.17510847    -0.53800
C183        C  0.07102337  0.47687567  0.18893575     0.09300
C184        C  0.05331223  0.47903358  0.17140706     0.20300
C185        C  0.06272471  0.45921849  0.13733947    -0.54500
C186        C  0.04472103  0.45880925  0.15118634     0.09400
C187        C  0.08706643  0.50289717  0.14220643    -0.54100
C188        C  0.06896992  0.50239278  0.15573001     0.10000
H189        H  0.10227934  0.47547408  0.18552453     0.14500
H190        H  0.03838387  0.47805055  0.18257638     0.00300
H191        H  0.05929107  0.44567692  0.12292170     0.14800
H192        H  0.10032362  0.51864041  0.13111520     0.14600
O193        O  0.42955787  0.69744023  0.07866436    -0.57900
C194        C  0.40065581  0.62676419  0.06746536     0.74700
O195        O  0.46253297  0.67297000  0.01959908    -0.59000
C196        C  0.44690130  0.71717995  0.06998781     0.74700
C197        C  0.48087978  0.66764073  0.09227308     0.77100
Cd198      Cd  0.44541903  0.67273981  0.06312963     1.37500
O199        O  0.40597763  0.64262197  0.08476833    -0.57900
O200        O  0.46339663  0.66701749  0.10359369    -0.56700
C201        C  0.44689506  0.67430586  0.00659128     0.77100
O202        O  0.48282599  0.67227694  0.06786885    -0.59100
O203        O  0.41625120  0.63177354  0.04989544    -0.57500
O204        O  0.46474774  0.71695194  0.06124198    -0.57500
O205        O  0.43117941  0.67538712  0.01964718    -0.56700
O206        O  0.42482479  0.76405510  0.01138997    -0.57900
C207        C  0.39576599  0.77759606  0.05967203     0.74700
O208        O  0.46226384  0.75790962  0.05744749    -0.59000
C209        C  0.44314185  0.78001876  0.99899223     0.74700
C210        C  0.47161121  0.82078787  0.08585709     0.77100
Cd211      Cd  0.44019717  0.77880260  0.05535607     1.37500
O212        O  0.41371398  0.79373863  0.04695304    -0.57900
O213        O  0.47605168  0.81935358  0.06194339    -0.56700
C214        C  0.44550708  0.73870909  0.06778173     0.77100
O215        O  0.45386396  0.80210284  0.09596612    -0.59100
O216        O  0.39830041  0.76207170  0.07146306    -0.57500
O217        O  0.46059723  0.79546263  0.01260208    -0.57500
O218        O  0.42680239  0.73843987  0.07410172    -0.56700
O219        O  0.43066367  0.67532685  0.46514906    -0.57900
C220        C  0.40028392  0.62486653  0.41321160     0.74700
O221        O  0.46404319  0.71568240  0.41861914    -0.59000
C222        C  0.44645044  0.67403191  0.47778413     0.74700
C223        C  0.48142716  0.67002620  0.39334215     0.77100
Cd224      Cd  0.44390965  0.67147094  0.42125267     1.37500
O225        O  0.41634481  0.62818499  0.42927461    -0.57900
O226        O  0.47998131  0.66917934  0.41815841    -0.56700
C227        C  0.44611276  0.71575081  0.40992893     0.77100
O228        O  0.46604719  0.67264666  0.38149918    -0.59100
O229        O  0.40460213  0.64281612  0.39940768    -0.57500
O230        O  0.46143262  0.67201360  0.46436767    -0.57500
O231        O  0.42768973  0.69553096  0.40480731    -0.56700
O232        O  0.42754108  0.73789850  0.40120093    -0.57900
C233        C  0.40053563  0.78155296  0.40643195     0.74700
O234        O  0.46181915  0.79616646  0.45720270    -0.59000
C235        C  0.44603258  0.73798097  0.40802367     0.74700
C236        C  0.47724153  0.82072435  0.38247550     0.77100
Cd237      Cd  0.44318636  0.78002043  0.41392024     1.37500
O238        O  0.40371412  0.76721196  0.39314714    -0.57900
O239        O  0.46069835  0.80145359  0.37223533    -0.56700
C240        C  0.44374249  0.78043841  0.47022650     0.77100
O241        O  0.47931087  0.82031230  0.40720607    -0.59100
O242        O  0.41721097  0.79543755  0.42183181    -0.57500
O243        O  0.46391348  0.75792093  0.41499927    -0.57500
O244        O  0.42585557  0.76492543  0.45724955    -0.56700
O245        O  0.26245544  0.57333183  0.07421543    -0.57900
C246        C  0.21518716  0.59605359  0.06348460     0.74700
O247        O  0.20941991  0.53497215  0.01670532    -0.59000
C248        C  0.26332941  0.55485846  0.07011906     0.74700
C249        C  0.17670980  0.51968216  0.08677897     0.77100
Cd250      Cd  0.22001023  0.55506911  0.05958240     1.37500
O251        O  0.22833490  0.59354210  0.07972834    -0.57900
O252        O  0.19526012  0.53512130  0.09907034    -0.56700
C253        C  0.22256976  0.55410007  0.00361907     0.77100
O254        O  0.17875748  0.51956061  0.06199877    -0.59100
O255        O  0.20403812  0.57952335  0.04690977    -0.57500
O256        O  0.24381148  0.53604336  0.06390416    -0.57500
O257        O  0.23479772  0.57328371  0.01643522    -0.56700
O258        O  0.36158817  0.59655123  0.08444292    -0.57900
C259        C  0.28615144  0.55567998  0.06996800     0.74700
O260        O  0.32396088  0.53909926  0.01652454    -0.59000
C261        C  0.37735087  0.60397001  0.06639164     0.74700
C262        C  0.34085042  0.52423330  0.08045141     0.77100
Cd263      Cd  0.33155515  0.55952138  0.05910088     1.37500
O264        O  0.30600291  0.57474517  0.07464437    -0.57900
O265        O  0.33250973  0.53358914  0.09526475    -0.56700
C266        C  0.32776125  0.55694928  0.00290007     0.77100
O267        O  0.34343708  0.53035944  0.05651361    -0.59100
O268        O  0.28713161  0.53782684  0.06292243    -0.57500
O269        O  0.37193333  0.59094128  0.04628354    -0.57500
O270        O  0.33222710  0.57549989  0.01526671    -0.56700
O271        O  0.23551899  0.57373251  0.46209179    -0.57900
C272        C  0.22021537  0.59800456  0.40947248     0.74700
O273        O  0.24415353  0.53564297  0.41604273    -0.59000
C274        C  0.22309358  0.55433844  0.47492863     0.74700
C275        C  0.17578875  0.51963057  0.39859206     0.77100
Cd276      Cd  0.22153869  0.55558732  0.41891226     1.37500
O277        O  0.21048761  0.58418218  0.42905136    -0.57900
O278        O  0.18002408  0.52347515  0.42285073    -0.56700
C279        C  0.26357955  0.55395171  0.40831598     0.77100
O280        O  0.19351511  0.53121381  0.38306501    -0.59100
O281        O  0.23064035  0.59220444  0.39289458    -0.57500
O282        O  0.21064418  0.53534936  0.46183715    -0.57500
O283        O  0.26303656  0.57239916  0.40278710    -0.56700
O284        O  0.30570205  0.57272536  0.40108144    -0.57900
C285        C  0.37733523  0.60168536  0.41228391     0.74700
O286        O  0.32554361  0.53897908  0.46146820    -0.59000
C287        C  0.28602858  0.55439092  0.40833271     0.74700
C288        C  0.33362230  0.52162944  0.38882624     0.77100
Cd289      Cd  0.33079975  0.55784533  0.41781687     1.37500
O290        O  0.36001407  0.59815803  0.39800542    -0.57900
O291        O  0.33173968  0.53769314  0.37733211    -0.56700
C292        C  0.32784989  0.55658790  0.47414294     0.77100
O293        O  0.33354965  0.52211429  0.41370288    -0.59100
O294        O  0.37354681  0.58456071  0.42719734    -0.57500
O295        O  0.28690970  0.53707147  0.41773944    -0.57500
O296        O  0.33099833  0.57432065  0.46082266    -0.56700
O297        O  0.35438812  0.76027319  0.07131172    -0.57900
C298        C  0.28171990  0.72986959  0.06240679     0.74700
O299        O  0.32779350  0.81022477  0.05874075    -0.59000
C300        C  0.37294613  0.77655244  0.05940157     0.74700
C301        C  0.32736347  0.77321913  0.99679317     0.77100
Cd302      Cd  0.32749094  0.77268025  0.05291615     1.37500
O303        O  0.30082464  0.73119092  0.06919908    -0.57900
O304        O  0.32752510  0.75680894  0.00961278    -0.56700
C305        C  0.33171824  0.81150788  0.08322252     0.77100
O306        O  0.32667618  0.78912917  0.00989345    -0.59100
O307        O  0.28368301  0.74880055  0.05353595    -0.57500
O308        O  0.37072154  0.79154273  0.04610042    -0.57500
O309        O  0.33231035  0.79421375  0.09340682    -0.56700
O310        O  0.25682737  0.68757940  0.06873537    -0.57900
C311        C  0.21384700  0.61760109  0.06214885     0.74700
O312        O  0.17876982  0.66239335  0.05007472    -0.59000
C313        C  0.25870142  0.70707384  0.06220400     0.74700
C314        C  0.21837338  0.66416102  0.99579686     0.77100
Cd315      Cd  0.21576623  0.66192361  0.05188877     1.37500
O316        O  0.22589018  0.63549022  0.07696430    -0.57900
O317        O  0.23686597  0.67131579  0.00962844    -0.56700
C318        C  0.17602634  0.66229323  0.07467399     0.77100
O319        O  0.19870785  0.65595600  0.00786743    -0.59100
O320        O  0.20144477  0.61963006  0.04463217    -0.57500
O321        O  0.24018079  0.70574249  0.05320245    -0.57500
O322        O  0.19187177  0.66215849  0.08866507    -0.56700
O323        O  0.36082209  0.76766357  0.39082084    -0.57900
C324        C  0.28727732  0.73336052  0.40175816     0.74700
O325        O  0.32848577  0.79055422  0.45533900    -0.59000
C326        C  0.37812152  0.78130283  0.40577083     0.74700
C327        C  0.33404542  0.81795312  0.38887511     0.77100
Cd328      Cd  0.33227415  0.77690283  0.41208766     1.37500
O329        O  0.30666956  0.73590106  0.39371590    -0.57900
O330        O  0.33216143  0.80138073  0.37442300    -0.56700
C331        C  0.32845792  0.77404120  0.46813595     0.77100
O332        O  0.33513472  0.81523688  0.41334909    -0.59100
O333        O  0.28863701  0.75142302  0.41211477    -0.57500
O334        O  0.37476721  0.79400757  0.42154973    -0.57500
O335        O  0.32987299  0.75856246  0.45503744    -0.56700
O336        O  0.26312939  0.69105242  0.39465896    -0.57900
C337        C  0.21986376  0.62001585  0.40754815     0.74700
O338        O  0.20099302  0.65746506  0.45336549    -0.59000
C339        C  0.26454650  0.71019870  0.40158405     0.74700
C340        C  0.18176306  0.66172809  0.38434140     0.77100
Cd341      Cd  0.22148758  0.66448729  0.41110600     1.37500
O342        O  0.23126038  0.63610764  0.39014406    -0.57900
O343        O  0.19659543  0.65857121  0.37205405    -0.56700
C344        C  0.21958995  0.66496953  0.46714310     0.77100
O345        O  0.18579368  0.66670369  0.40848208    -0.59100
O346        O  0.20857809  0.62411095  0.42459241    -0.57500
O347        O  0.24570280  0.70821576  0.41059353    -0.57500
O348        O  0.23920462  0.67285095  0.45501646    -0.56700
O349        O  0.55749961  0.30500856  0.08163089    -0.57900
C350        C  0.58961327  0.37763074  0.06589569     0.74700
O351        O  0.52629885  0.32673594  0.01747076    -0.59000
C352        C  0.54122693  0.28595105  0.07086596     0.74700
C353        C  0.50907547  0.33539852  0.08833765     0.77100
Cd354      Cd  0.54529252  0.33138574  0.06062245     1.37500
O355        O  0.58683771  0.35940270  0.07795217    -0.57900
O356        O  0.52584504  0.33532147  0.10042196    -0.56700
C357        C  0.54456684  0.33161081  0.00407431     0.77100
O358        O  0.50869264  0.33259586  0.06374280    -0.59100
O359        O  0.57175749  0.37469215  0.05328458    -0.57500
O360        O  0.52607228  0.28759410  0.05739987    -0.57500
O361        O  0.56280915  0.33554710  0.01671784    -0.56700
O362        O  0.56321124  0.23905605  0.51809521    -0.57900
C363        C  0.58976499  0.22459842  0.06777278     0.74700
O364        O  0.52531161  0.24527057  0.05920222    -0.59000
C365        C  0.54432371  0.22550861  0.50525449     0.74700
C366        C  0.51036749  0.17828428  0.08690639     0.77100
Cd367      Cd  0.54543531  0.22290891  0.06151292     1.37500
O368        O  0.57248991  0.20897554  0.05421359    -0.57900
O369        O  0.51360797  0.18045857  0.06227062    -0.56700
C370        C  0.54108737  0.26356337  0.07146124     0.77100
O371        O  0.52275984  0.19728116  0.10013628    -0.59100
O372        O  0.58644582  0.23924882  0.08016045    -0.57500
O373        O  0.52583580  0.21080874  0.01837092    -0.57500
O374        O  0.55770407  0.26218030  0.08200593    -0.56700
O375        O  0.57606018  0.37939110  0.42800883    -0.57900
C376        C  0.54484850  0.33317448  0.47530972     0.74700
O377        O  0.52263792  0.33828780  0.38118846    -0.59000
C378        C  0.59086371  0.38286642  0.41002428     0.74700
C379        C  0.54254032  0.29249430  0.40921459     0.77100
Cd380      Cd  0.54629930  0.33760634  0.41889971     1.37500
O381        O  0.56367102  0.33959245  0.46220237    -0.57900
O382        O  0.56094319  0.31222444  0.40224606    -0.56700
C383        C  0.51107757  0.34520016  0.39434232     0.77100
O384        O  0.52501488  0.29337079  0.41778758    -0.59100
O385        O  0.52650434  0.32863273  0.46242571    -0.57500
O386        O  0.58488836  0.36552960  0.39456689    -0.57500
O387        O  0.51526414  0.34766481  0.41877624    -0.56700
O388        O  0.56922353  0.21053618  0.42600821    -0.57900
C389        C  0.54403677  0.22661079  0.47652854     0.74700
O390        O  0.52477980  0.25100889  0.41951873    -0.59000
C391        C  0.58672879  0.22543741  0.41180301     0.74700
C392        C  0.50854286  0.18666019  0.39132142     0.77100
Cd393      Cd  0.54444332  0.22783708  0.42008925     1.37500
O394        O  0.56231909  0.24196524  0.46360599    -0.57900
O395        O  0.50590904  0.18869410  0.41562071    -0.56700
C396        C  0.54230323  0.27005558  0.40987543     0.77100
O397        O  0.52670492  0.20447772  0.38050800    -0.59100
O398        O  0.52566103  0.21210050  0.46345170    -0.57500
O399        O  0.58454446  0.24117402  0.39997502    -0.57500
O400        O  0.56028640  0.26923031  0.40299094    -0.56700
O401        O  0.76026279  0.37021627  0.07994267    -0.57900
C402        C  0.72688676  0.29651125  0.06962177     0.74700
O403        O  0.78217198  0.33553126  0.01562526    -0.59000
C404        C  0.77309973  0.38727949  0.06401627     0.74700
C405        C  0.81171443  0.34809525  0.08542662     0.77100
Cd406      Cd  0.77001222  0.34207711  0.05898741     1.37500
O407        O  0.72860952  0.31587915  0.07620653    -0.57900
O408        O  0.79285874  0.34261103  0.09806976    -0.56700
C409        C  0.76682357  0.33751943  0.00289070     0.77100
O410        O  0.81097375  0.35046158  0.06077983    -0.59100
O411        O  0.74565709  0.29813126  0.06090096    -0.57500
O412        O  0.78535123  0.38387740  0.04754650    -0.57500
O413        O  0.75269489  0.34098565  0.01608719    -0.56700
O414        O  0.68452328  0.27182482  0.07621808    -0.57900
C415        C  0.61274592  0.22608997  0.06737644     0.74700
O416        O  0.65653690  0.21282237  0.01610199    -0.59000
C417        C  0.70384900  0.27355660  0.06943715     0.74700
C418        C  0.65372599  0.19049033  0.08914704     0.77100
Cd419      Cd  0.65814364  0.23035399  0.05954162     1.37500
O420        O  0.63123873  0.24246266  0.07895430    -0.57900
O421        O  0.65108312  0.20633785  0.09970707    -0.56700
C422        C  0.65729140  0.22948247  0.00273616     0.77100
O423        O  0.65989983  0.19402979  0.06516111    -0.59100
O424        O  0.61517598  0.21144492  0.05390017    -0.57500
O425        O  0.70213290  0.25491644  0.06023229    -0.57500
O426        O  0.65890814  0.24671661  0.01547616    -0.56700
O427        O  0.72731800  0.31151270  0.39617370    -0.57900
C428        C  0.77012642  0.38403238  0.40968312     0.74700
O429        O  0.78056352  0.33402549  0.46087589    -0.59000
C430        C  0.72329516  0.29320501  0.40908414     0.74700
C431        C  0.80829142  0.34158544  0.39512437     0.77100
Cd432      Cd  0.76670146  0.33863084  0.41786614     1.37500
O433        O  0.75642200  0.36627146  0.39531031    -0.57900
O434        O  0.79006623  0.33518224  0.38097201    -0.56700
C435        C  0.76595626  0.33672940  0.47416580     0.77100
O436        O  0.80665981  0.34612966  0.41884199    -0.59100
O437        O  0.78277780  0.38106878  0.42596223    -0.57500
O438        O  0.73978507  0.29575695  0.42398605    -0.57500
O439        O  0.75105215  0.33945655  0.46146388    -0.56700
O440        O  0.62737041  0.24052365  0.39815414    -0.57900
C441        C  0.70016318  0.27045265  0.40891772     0.74700
O442        O  0.65396368  0.21130316  0.46112620    -0.59000
C443        C  0.60890338  0.22514308  0.41089441     0.74700
C444        C  0.65407217  0.18857027  0.39073497     0.77100
Cd445      Cd  0.65401821  0.22760276  0.41725133     1.37500
O446        O  0.68227790  0.26741125  0.39613503    -0.57900
O447        O  0.65659725  0.20624743  0.37770155    -0.56700
C448        C  0.65618583  0.22881204  0.47390501     0.77100
O449        O  0.65148396  0.18927375  0.41531158    -0.59100
O450        O  0.69683960  0.25330068  0.42343371    -0.57500
O451        O  0.61083562  0.21007847  0.42436689    -0.57500
O452        O  0.65728188  0.24568148  0.46060755    -0.56700
O453        O  0.78546321  0.42561277  0.04624425    -0.57900
C454        C  0.76988925  0.45317524  0.99918989     0.74700
O455        O  0.74599869  0.46991721  0.05866788    -0.59000
C456        C  0.77297966  0.40949607  0.06314915     0.74700
C457        C  0.81191575  0.48755781  0.08384230     0.77100
Cd458      Cd  0.77018347  0.45145279  0.05562123     1.37500
O459        O  0.75562419  0.43443393  0.01219629    -0.57900
O460        O  0.81050272  0.48802884  0.05905518    -0.56700
C461        C  0.72669089  0.45095882  0.06542838     0.77100
O462        O  0.79331458  0.47115289  0.09560839    -0.59100
O463        O  0.78426029  0.47168689  0.01221312    -0.57500
O464        O  0.75968517  0.41304844  0.07793594    -0.57500
O465        O  0.72786421  0.43272948  0.07005853    -0.56700
O466        O  0.65712352  0.42954645  0.01193977    -0.57900
C467        C  0.61262149  0.40079652  0.06480960     0.74700
O468        O  0.70247080  0.46731644  0.05807898    -0.59000
C469        C  0.66168977  0.44818646  0.99944505     0.74700
C470        C  0.65348372  0.48121234  0.08345346     0.77100
Cd471      Cd  0.65833481  0.44529086  0.05611925     1.37500
O472        O  0.61529038  0.41732743  0.04964278    -0.57900
O473        O  0.64928135  0.47675771  0.05919586    -0.56700
C474        C  0.70376182  0.44967507  0.06546583     0.77100
O475        O  0.66054279  0.46916050  0.09545806    -0.59100
O476        O  0.63092705  0.40498475  0.07759745    -0.57500
O477        O  0.66515769  0.46577969  0.01303455    -0.57500
O478        O  0.68414957  0.43043264  0.07081136    -0.56700
O479        O  0.75570292  0.43400867  0.45799758    -0.57900
C480        C  0.77078320  0.40669660  0.40912269     0.74700
O481        O  0.74741520  0.46992613  0.41427820    -0.59000
C482        C  0.76994341  0.45294679  0.47041333     0.74700
C483        C  0.81453385  0.48590800  0.38748807     0.77100
Cd484      Cd  0.77069084  0.45045858  0.41415334     1.37500
O485        O  0.78324444  0.42282459  0.42568093    -0.57900
O486        O  0.81262916  0.48352168  0.41223313    -0.56700
C487        C  0.72846481  0.45255671  0.40460497     0.77100
O488        O  0.79554751  0.47253857  0.37460680    -0.59100
O489        O  0.75847949  0.41085016  0.39338762    -0.57500
O490        O  0.78439644  0.47126043  0.45683046    -0.57500
O491        O  0.72951072  0.43489444  0.39688594    -0.56700
O492        O  0.68639927  0.43444154  0.39664032    -0.57900
C493        C  0.61417583  0.40564860  0.40879934     0.74700
O494        O  0.66579537  0.46720022  0.45786685    -0.59000
C495        C  0.70597752  0.45224224  0.40465942     0.74700
C496        C  0.65729448  0.48665222  0.38813308     0.77100
Cd497      Cd  0.66094669  0.44913958  0.41403769     1.37500
O498        O  0.63069483  0.40983432  0.39265148    -0.57900
O499        O  0.65926378  0.47157031  0.37478276    -0.56700
C500        C  0.66233609  0.44903319  0.47061822     0.77100
O501        O  0.65782408  0.48465335  0.41285351    -0.59100
O502        O  0.61900597  0.42182821  0.42534268    -0.57500
O503        O  0.70495076  0.46918001  0.41471560    -0.57500
O504        O  0.65893611  0.43132880  0.45728896    -0.56700
C505        C  0.51613218  0.91283670  0.33063894     0.86400
C506        C  0.52184918  0.91690687  0.30102737    -0.53800
C507        C  0.52385908  0.93719538  0.29112228     0.09300
C508        C  0.52118648  0.95246874  0.31202023     0.20300
C509        C  0.53703799  0.93600651  0.34333061    -0.54500
C510        C  0.53946665  0.95663508  0.33353026     0.09400
C511        C  0.49432949  0.91502947  0.33477374    -0.54100
C512        C  0.49680162  0.93551200  0.32519385     0.10000
H513        H  0.52238609  0.90385525  0.28852824     0.14500
H514        H  0.52319763  0.96918057  0.30396643     0.00300
H515        H  0.54886117  0.93670006  0.35854068     0.14800
H516        H  0.47782560  0.90102662  0.34407336     0.14600
C517        C  0.51398912  0.91421179  0.13666267     0.86400
C518        C  0.49671261  0.92241361  0.12988277    -0.53800
C519        C  0.50202710  0.94337130  0.14129135     0.09300
C520        C  0.52487408  0.95499702  0.15777706     0.20300
C521        C  0.53870131  0.93592338  0.12760361    -0.54500
C522        C  0.54409524  0.95718657  0.13870519     0.09400
C523        C  0.51570799  0.91476328  0.16690923    -0.54100
C524        C  0.52073315  0.93574042  0.17792449     0.10000
H525        H  0.48072969  0.91173911  0.11812320     0.14500
H526        H  0.52935558  0.97223813  0.16682593     0.00300
H527        H  0.55054173  0.93534111  0.11326186     0.14800
H528        H  0.51302673  0.89974622  0.17876631     0.14600
C529        C  0.62259461  0.09988552  0.33931376     0.86400
C530        C  0.59831825  0.09763403  0.33964331    -0.53800
C531        C  0.58044676  0.07821365  0.32730007     0.09300
C532        C  0.58825758  0.06204973  0.31556670     0.20300
C533        C  0.61800122  0.07577283  0.35031432    -0.60500
C534        C  0.59957031  0.05622476  0.33818936     0.09400
C535        C  0.62724234  0.09862488  0.30952022    -0.54100
C536        C  0.60971075  0.07814968  0.29701107     0.10000
H537        H  0.59545791  0.11074339  0.34900798     0.14500
H538        H  0.57281128  0.04556744  0.30748761     0.00300
H539        H  0.62827314  0.07405395  0.36577928     0.14800
H540        H  0.64268679  0.11270492  0.29926265     0.14600
C541        C  0.61345518  0.09826762  0.14266742     0.86400
C542        C  0.61795487  0.09613405  0.17192210    -0.53800
C543        C  0.60206913  0.07453275  0.18392243     0.09300
C544        C  0.58307620  0.05668444  0.16422783     0.20300
C545        C  0.61366883  0.07688324  0.12998434    -0.54500
C546        C  0.59785080  0.05525469  0.14179894     0.09400
C547        C  0.58729368  0.09090177  0.14097978    -0.54100
C548        C  0.57142030  0.06939325  0.15206392     0.10000
H549        H  0.63308896  0.11078788  0.18190958     0.14500
H550        H  0.56963977  0.03864428  0.17127673     0.00300
H551        H  0.62500169  0.07815479  0.11378814     0.14800
H552        H  0.58170286  0.10216037  0.13196988     0.14600
C553        C  0.36562455  0.90839457  0.34011840     0.86400
C554        C  0.39010277  0.91082801  0.33771432    -0.53800
C555        C  0.40716128  0.93023709  0.32382820     0.09300
C556        C  0.39793108  0.94539031  0.31248679     0.20300
C557        C  0.37133507  0.93284784  0.35088422    -0.54500
C558        C  0.38852532  0.95204645  0.33650473     0.09400
C559        C  0.35844734  0.90883505  0.31130351    -0.54100
C560        C  0.37549601  0.92779635  0.29679265     0.10000
H561        H  0.39387952  0.89833468  0.34714937     0.14500
H562        H  0.41151050  0.96136041  0.30118774     0.00300
H563        H  0.36338158  0.93506742  0.36843998     0.14800
H564        H  0.34229250  0.89502151  0.30186185     0.14600
C565        C  0.37146912  0.90106796  0.14082001     0.86400
C566        C  0.36571659  0.89940513  0.17034067    -0.53800
C567        C  0.38051037  0.91975308  0.18407915     0.09300
C568        C  0.39866419  0.94084752  0.16656555     0.20300
C569        C  0.36949853  0.92232545  0.13090805    -0.54500
C570        C  0.38376812  0.94306667  0.14474892     0.09400
C571        C  0.39838835  0.91121508  0.13853703    -0.54100
C572        C  0.41263756  0.93180967  0.15199473     0.10000
H573        H  0.35092944  0.88332935  0.17936356     0.14500
H574        H  0.41029948  0.95786887  0.17723919     0.00300
H575        H  0.35972124  0.92205457  0.11365151     0.14800
H576        H  0.40565456  0.90273074  0.12683024     0.14600
C577        C  0.47041208  0.09676086  0.33737730     0.86400
C578        C  0.46386632  0.09311605  0.30804800    -0.53800
C579        C  0.46418834  0.07455037  0.29687395     0.09300
C580        C  0.46920092  0.05989593  0.31632934     0.20300
C581        C  0.45123071  0.07215172  0.34983602    -0.54500
C582        C  0.45084173  0.05294436  0.33870114     0.09400
C583        C  0.49386257  0.09718894  0.33963556    -0.54100
C584        C  0.49319229  0.07798997  0.32895417     0.10000
H585        H  0.45923395  0.10411737  0.29684275     0.14500
H586        H  0.46880536  0.04445812  0.30702263     0.00300
H587        H  0.43863581  0.06962060  0.36517364     0.14800
H588        H  0.50983323  0.11163515  0.34903413     0.14600
C589        C  0.46349617  0.08611479  0.14035575     0.86400
C590        C  0.48547850  0.08372243  0.14062736    -0.53800
C591        C  0.48251542  0.06436252  0.15402938     0.09300
C592        C  0.45757950  0.04893393  0.16676482     0.20300
C593        C  0.44261956  0.06189010  0.13039514    -0.54500
C594        C  0.43970935  0.04254722  0.14401075     0.09400
C595        C  0.45769262  0.08580947  0.16994732    -0.54100
C596        C  0.45478639  0.06657525  0.18380197     0.10000
H597        H  0.50230644  0.09655822  0.13094441     0.14500
H598        H  0.45520867  0.03310520  0.17753970     0.00300
H599        H  0.43093488  0.06007896  0.11435362     0.14800
H600        H  0.45748332  0.09998115  0.18032047     0.14600
C601        C  0.44287646  0.05058942  0.25716665    -0.20400
C602        C  0.46263565  0.07114237  0.26804223    -0.06900
C603        C  0.47979962  0.08934187  0.25115656     0.13900
C604        C  0.47552312  0.08784914  0.22419941    -0.20400
C605        C  0.45616039  0.06724733  0.21300236    -0.06900
C606        C  0.43961537  0.04826381  0.22963466     0.13900
C607        C  0.41783051  0.02639568  0.21866163    -0.23800
H608        H  0.42976496  0.03665038  0.27023861     0.15200
H609        H  0.48847994  0.10235588  0.21152770     0.15200
C610        C  0.50353783  0.10987908  0.26055943    -0.23700
H611        H  0.40619706  0.01416552  0.23464829     0.05400
H612        H  0.42306353  0.01629363  0.20594842     0.08700
H613        H  0.40724416  0.03189607  0.20711220     0.08700
H614        H  0.50672066  0.10795660  0.28152155     0.08700
H615        H  0.50460440  0.12707690  0.25722402     0.08700
H616        H  0.51821304  0.11028279  0.24928865     0.05400
C617        C  0.41102596  0.97918266  0.11926020    -0.20400
C618        C  0.39083069  0.96731430  0.13571340    -0.06900
C619        C  0.38385486  0.98084039  0.15015684     0.13900
C620        C  0.39939102  0.00590064  0.15125916    -0.20400
C621        C  0.42125322  0.01745002  0.13751430    -0.06900
C622        C  0.42628423  0.00419669  0.11988841     0.13900
C623        C  0.44856045  0.01620283  0.10314611    -0.23800
H624        H  0.41622284  0.96870794  0.10799397     0.15200
H625        H  0.39491979  0.01634925  0.16357952     0.15200
C626        C  0.36012928  0.96870988  0.16436227    -0.23700
H627        H  0.44945685  0.00328110  0.08997195     0.05400
H628        H  0.46435634  0.02419820  0.11616038     0.08700
H629        H  0.44906159  0.03039228  0.09072953     0.08700
H630        H  0.35842636  0.95490296  0.17829162     0.08700
H631        H  0.34549431  0.95974432  0.14972859     0.08700
H632        H  0.35772490  0.98176050  0.17549719     0.05400
C633        C  0.40904709  0.01750515  0.33978893    -0.20400
C634        C  0.43337947  0.02738788  0.34548891    -0.06900
C635        C  0.44109417  0.01199898  0.35364022     0.13900
C636        C  0.42491608  0.98716569  0.35344225    -0.20400
C637        C  0.40128911  0.97725852  0.34516563    -0.06900
C638        C  0.39284993  0.99246728  0.33954257     0.13900
C639        C  0.36711415  0.98224858  0.33226502    -0.23800
H640        H  0.40306436  0.02929909  0.33380961     0.15200
H641        H  0.43117590  0.97531062  0.35802768     0.15200
C642        C  0.46638602  0.02145541  0.36222472    -0.23700
H643        H  0.36349430  0.99658758  0.32800575     0.05400
H644        H  0.35534647  0.97108244  0.34883885     0.08700
H645        H  0.36254454  0.97089817  0.31456472     0.08700
H646        H  0.47088483  0.03416246  0.37865952     0.08700
H647        H  0.47892555  0.03036865  0.34554879     0.08700
H648        H  0.46877904  0.00688794  0.36936905     0.05400
C649        C  0.37571956  0.90626477  0.25769154    -0.20400
C650        C  0.37584957  0.92600710  0.26789016    -0.06900
C651        C  0.37741770  0.94360854  0.25072174     0.13900
C652        C  0.37947903  0.94133508  0.22353077    -0.20400
C653        C  0.37904193  0.92137810  0.21312768    -0.06900
C654        C  0.37773643  0.90384319  0.23067839     0.13900
C655        C  0.38017526  0.88342616  0.22185198    -0.23800
H656        H  0.37501099  0.89307674  0.27121972     0.15200
H657        H  0.38130146  0.95518944  0.21040584     0.15200
C658        C  0.37567537  0.96401058  0.26089900    -0.23700
H659        H  0.38140499  0.87340281  0.23881908     0.05400
H660        H  0.39683871  0.89049375  0.21016854     0.08700
H661        H  0.36434690  0.87025231  0.21045304     0.08700
H662        H  0.39087323  0.97543972  0.27420121     0.08700
H663        H  0.35850362  0.95665273  0.27172465     0.08700
H664        H  0.37579722  0.97534034  0.24456977     0.05400
C665        C  0.53584927  0.06153085  0.17724500    -0.20400
C666        C  0.54564763  0.06082456  0.15306569    -0.06900
C667        C  0.53260707  0.05736232  0.12972269     0.13900
C668        C  0.51134911  0.05731623  0.13087708    -0.20400
C669        C  0.50210747  0.05943264  0.15495677    -0.06900
C670        C  0.51400546  0.06039571  0.17856336     0.13900
C671        C  0.50553264  0.06312362  0.20494773    -0.23800
H672        H  0.54641713  0.06539588  0.19492582     0.15200
H673        H  0.50253698  0.05682721  0.11267713     0.15200
C674        C  0.54136572  0.05425288  0.10350553    -0.23700
H675        H  0.51663994  0.06296039  0.22126411     0.05400
H676        H  0.48682291  0.04824969  0.20865548     0.08700
H677        H  0.50716008  0.08067937  0.20519380     0.08700
H678        H  0.54320948  0.03848421  0.10459029     0.08700
H679        H  0.55890404  0.07043648  0.09821231     0.08700
H680        H  0.52862936  0.05110886  0.08741717     0.05400
C681        C  0.52276534  0.07290324  0.30505144    -0.20400
C682        C  0.51400235  0.07526366  0.32924588    -0.06900
C683        C  0.52565486  0.07573651  0.35284960     0.13900
C684        C  0.54630244  0.07480780  0.35141164    -0.20400
C685        C  0.55588502  0.07372455  0.32713610    -0.06900
C686        C  0.54372877  0.07238478  0.30364342     0.13900
C687        C  0.55301239  0.07125953  0.27701615    -0.23800
H688        H  0.51359946  0.07230264  0.28707123     0.15200
H689        H  0.55553881  0.07574698  0.36948224     0.15200
C690        C  0.51702514  0.07714213  0.37993505    -0.23700
H691        H  0.54266812  0.07291303  0.26082051     0.05400
H692        H  0.55099351  0.05359831  0.27501899     0.08700
H693        H  0.57202966  0.08600925  0.27461961     0.08700
H694        H  0.49988499  0.07641135  0.37980080     0.08700
H695        H  0.53076078  0.09409591  0.38949574     0.08700
H696        H  0.51426156  0.06180822  0.39214693     0.05400
C697        C  0.58952553  0.05365780  0.25654259    -0.20400
C698        C  0.61038258  0.07232440  0.26834088    -0.06900
C699        C  0.63070779  0.08516382  0.25176774     0.13900
C700        C  0.62746352  0.08454278  0.22441046    -0.20400
C701        C  0.60472780  0.07001305  0.21268656    -0.06900
C702        C  0.58618256  0.05215934  0.22916874     0.13900
C703        C  0.56301810  0.03092614  0.21937412    -0.23800
H704        H  0.57533047  0.03990299  0.26840621     0.15200
H705        H  0.64324992  0.09501394  0.21223385     0.15200
C706        C  0.65607181  0.09710419  0.26155553    -0.23700
H707        H  0.55128248  0.01919166  0.23568384     0.05400
H708        H  0.56683480  0.01943779  0.20709620     0.08700
H709        H  0.55246944  0.03684573  0.20872666     0.08700
H710        H  0.65693653  0.09163374  0.28203065     0.08700
H711        H  0.66512385  0.11689742  0.25989802     0.08700
H712        H  0.66612641  0.09134899  0.24937137     0.05400
C713        C  0.47646199  0.95222622  0.16795319    -0.20400
C714        C  0.48404441  0.95023959  0.14276717    -0.06900
C715        C  0.47075925  0.94940958  0.12053803     0.13900
C716        C  0.44861164  0.94698053  0.12437008    -0.20400
C717        C  0.43901037  0.94433469  0.14976553    -0.06900
C718        C  0.45373342  0.94871296  0.17183945     0.13900
C719        C  0.44502577  0.94765539  0.19951511    -0.23800
H720        H  0.48710521  0.95380882  0.18494908     0.15200
H721        H  0.43766979  0.94464720  0.10733176     0.15200
C722        C  0.47865398  0.94968514  0.09261669    -0.23700
H723        H  0.45879103  0.95054420  0.21410842     0.05400
H724        H  0.42873020  0.92987734  0.20351075     0.08700
H725        H  0.44112743  0.96192454  0.20240860     0.08700
H726        H  0.46521496  0.93284253  0.08263138     0.08700
H727        H  0.49614911  0.95127270  0.09152942     0.08700
H728        H  0.48023460  0.96517436  0.08179787     0.05400
C729        C  0.58300403  0.99250092  0.15080189    -0.20400
C730        C  0.56505208  0.98112519  0.13183517    -0.06900
C731        C  0.56372724  0.99503376  0.11134450     0.13900
C732        C  0.57784553  0.02016224  0.11267589    -0.20400
C733        C  0.59323881  0.03153477  0.13392401    -0.06900
C734        C  0.59732214  0.01762081  0.15192974     0.13900
C735        C  0.61584716  0.02917160  0.17322369    -0.23800
H736        H  0.58430381  0.98180077  0.16623379     0.15200
H737        H  0.57506943  0.03081030  0.09848229     0.15200
C738        C  0.54635982  0.98401928  0.08895861    -0.23700
H739        H  0.61760783  0.01571038  0.18455926     0.05400
H740        H  0.61082442  0.03845910  0.18729757     0.08700
H741        H  0.63353517  0.04224829  0.16427307     0.08700
H742        H  0.55627094  0.99025493  0.06994712     0.08700
H743        H  0.53660782  0.96418422  0.08924159     0.08700
H744        H  0.53329122  0.98973048  0.08989513     0.05400
C745        C  0.46886016  0.94383126  0.30236271    -0.20400
C746        C  0.47674378  0.93952658  0.32614758    -0.06900
C747        C  0.46347959  0.93605399  0.34952857     0.13900
C748        C  0.44189792  0.93517404  0.34802248    -0.20400
C749        C  0.43258928  0.93686190  0.32382473    -0.06900
C750        C  0.44676869  0.94225150  0.30076111     0.13900
C751        C  0.43824854  0.94446280  0.27409166    -0.23800
H752        H  0.47920046  0.94668796  0.28456086     0.15200
H753        H  0.43161803  0.93200978  0.36597333     0.15200
C754        C  0.47107561  0.93278041  0.37644488    -0.23700
H755        H  0.45127012  0.94728993  0.25847217     0.05400
H756        H  0.43614242  0.96002590  0.27327476     0.08700
H757        H  0.42119433  0.92768739  0.26954065     0.08700
H758        H  0.48847533  0.93408491  0.37637722     0.08700
H759        H  0.45734051  0.91489925  0.38456189     0.08700
H760        H  0.47272820  0.94684974  0.38985412     0.05400
C761        C  0.58117884  0.99200118  0.33211087    -0.20400
C762        C  0.55786923  0.98108069  0.34239691    -0.06900
C763        C  0.55149693  0.99490945  0.35733347     0.13900
C764        C  0.56754037  0.01970713  0.35911339    -0.20400
C765        C  0.58950775  0.03101303  0.34580281    -0.06900
C766        C  0.59695305  0.01703912  0.33312326     0.13900
C767        C  0.62076257  0.02872189  0.31912715    -0.23800
H768        H  0.58632017  0.98123668  0.32139220     0.15200
H769        H  0.56192622  0.03063066  0.36868434     0.15200
C770        C  0.52747103  0.98383631  0.37054101    -0.23700
H771        H  0.62387444  0.01521642  0.31027640     0.05400
H772        H  0.63535701  0.03954005  0.33334081     0.08700
H773        H  0.62148521  0.04061054  0.30306141     0.08700
H774        H  0.52493305  0.96945041  0.38421844     0.08700
H775        H  0.51324747  0.97652745  0.35548411     0.08700
H776        H  0.52584169  0.99714468  0.38217679     0.05400
C777        C  0.50123084  0.92533254  0.24969410    -0.20400
C778        C  0.52305953  0.94050412  0.26233291    -0.06900
C779        C  0.54356485  0.95625718  0.24705818     0.13900
C780        C  0.54204172  0.95514836  0.21940630    -0.20400
C781        C  0.52053509  0.93874609  0.20682213    -0.06900
C782        C  0.49958361  0.92447306  0.22218519     0.13900
C783        C  0.47517021  0.90827690  0.21039627    -0.23800
H784        H  0.48537341  0.91364872  0.26144542     0.15200
H785        H  0.55796843  0.96651403  0.20763135     0.15200
C786        C  0.56736707  0.97380698  0.25919850    -0.23700
H787        H  0.46836959  0.88935448  0.21591903     0.05400
H788        H  0.47517616  0.90976991  0.18867910     0.08700
H789        H  0.46260021  0.91316882  0.21819380     0.08700
H790        H  0.58087961  0.96965259  0.25286244     0.08700
H791        H  0.56653174  0.97329861  0.28094812     0.08700
H792        H  0.57327953  0.99229585  0.25264908     0.05400
C793        C  0.64249023  0.14621523  0.39355867    -0.20400
C794        C  0.65266418  0.16731959  0.37846725    -0.06900
C795        C  0.65980613  0.16687881  0.35230131     0.13900
C796        C  0.65360391  0.14479178  0.34103608    -0.20400
C797        C  0.63981993  0.12279354  0.35491218    -0.06900
C798        C  0.63581984  0.12409269  0.38240065     0.13900
C799        C  0.62286842  0.10230133  0.40023931    -0.23800
H800        H  0.63808197  0.14664533  0.41405602     0.15200
H801        H  0.65780040  0.14499675  0.32048889     0.15200
C802        C  0.67341510  0.18940561  0.33579443    -0.23700
H803        H  0.62041246  0.10698132  0.42049990     0.05400
H804        H  0.63357035  0.09394031  0.40231223     0.08700
H805        H  0.60468854  0.08926839  0.39269616     0.08700
H806        H  0.68992605  0.20287768  0.34624092     0.08700
H807        H  0.66205926  0.19683661  0.33181915     0.08700
H808        H  0.67885684  0.18595513  0.31643279     0.05400
C809        C  0.63895219  0.16537582  0.12943544    -0.20400
C810        C  0.64832127  0.16846989  0.10393542    -0.06900
C811        C  0.65012168  0.14974168  0.09289857     0.13900
C812        C  0.64085239  0.12797091  0.10689767    -0.20400
C813        C  0.62925251  0.12394208  0.13148057    -0.06900
C814        C  0.62925958  0.14366087  0.14329197     0.13900
C815        C  0.61834318  0.14238988  0.17008103    -0.23800
H816        H  0.63816122  0.17986346  0.13832240     0.15200
H817        H  0.64149520  0.11371379  0.09745619     0.15200
C818        C  0.66103209  0.15201947  0.06605036    -0.23700
H819        H  0.61801330  0.15875562  0.17420918     0.05400
H820        H  0.62916710  0.14128532  0.18598838     0.08700
H821        H  0.59953518  0.12714194  0.17152986     0.08700
H822        H  0.67963793  0.16789204  0.06550909     0.08700
H823        H  0.65010899  0.15376768  0.05066037     0.08700
H824        H  0.66181132  0.13603464  0.06112042     0.05400
C825        C  0.46535848  0.12081794  0.37348832    -0.20400
C826        C  0.47454419  0.12042367  0.34846861    -0.06900
C827        C  0.49141583  0.14303939  0.33639196     0.13900
C828        C  0.49931425  0.16426434  0.35009942    -0.20400
C829        C  0.49288669  0.16423343  0.37630673    -0.06900
C830        C  0.47459135  0.14230722  0.38774871     0.13900
C831        C  0.46533306  0.14105357  0.41527491    -0.23800
H832        H  0.45243936  0.10425669  0.38321503     0.15200
H833        H  0.51250832  0.18113555  0.34084272     0.15200
C834        C  0.50331449  0.14581553  0.30998220    -0.23700
H835        H  0.45028573  0.12269231  0.42045037     0.05400
H836        H  0.45867873  0.15333826  0.41689669     0.08700
H837        H  0.47975898  0.14604281  0.42983677     0.08700
H838        H  0.49020302  0.13990926  0.29382096     0.08700
H839        H  0.51279491  0.13617793  0.31004872     0.08700
H840        H  0.51716803  0.16479413  0.30526646     0.05400
C841        C  0.48949631  0.13396856  0.08546898    -0.20400
C842        C  0.49398280  0.15439346  0.09920034    -0.06900
C843        C  0.48334303  0.15136080  0.12422484     0.13900
C844        C  0.47069336  0.12842432  0.13587540    -0.20400
C845        C  0.46923634  0.10836177  0.12385775    -0.06900
C846        C  0.47713565  0.11104624  0.09716384     0.13900
C847        C  0.47319206  0.09017919  0.08065440    -0.23800
H848        H  0.49664293  0.13606523  0.06568969     0.15200
H849        H  0.46292246  0.12697038  0.15498767     0.15200
C850        C  0.48524336  0.17215538  0.13891353    -0.23700
H851        H  0.48119302  0.09609237  0.06065323     0.05400
H852        H  0.45377578  0.07727507  0.07784048     0.08700
H853        H  0.48139371  0.08091128  0.08967764     0.08700
H854        H  0.47861714  0.18126239  0.12634966     0.08700
H855        H  0.50410448  0.18507394  0.14453556     0.08700
H856        H  0.47443134  0.16623976  0.15737602     0.05400
C857        C  0.34867291  0.86100869  0.39339006    -0.20400
C858        C  0.33626269  0.84011899  0.37827927    -0.06900
C859        C  0.32714743  0.84131489  0.35361613     0.13900
C860        C  0.33326527  0.86378005  0.34340776    -0.20400
C861        C  0.34927906  0.88547967  0.35657472    -0.06900
C862        C  0.35537829  0.88357601  0.38304433     0.13900
C863        C  0.37028271  0.90514089  0.40029585    -0.23800
H864        H  0.35463718  0.85994338  0.41295580     0.15200
H865        H  0.32682117  0.86384144  0.32401598     0.15200
C866        C  0.31128506  0.81910655  0.33765547    -0.23700
H867        H  0.37406900  0.90004906  0.41973858     0.05400
H868        H  0.36037208  0.91407808  0.40436304     0.08700
H869        H  0.38785256  0.91788325  0.39094947     0.08700
H870        H  0.29555506  0.80596602  0.34968142     0.08700
H871        H  0.32144101  0.81094456  0.33118257     0.08700
H872        H  0.30450763  0.82318289  0.31964049     0.05400
C873        C  0.35055473  0.83627583  0.12204402    -0.20400
C874        C  0.33755840  0.83281979  0.09907991    -0.06900
C875        C  0.33273159  0.85053572  0.09133160     0.13900
C876        C  0.34256486  0.87192652  0.10592170    -0.20400
C877        C  0.35768388  0.87640192  0.12764374    -0.06900
C878        C  0.36107901  0.85761898  0.13602387     0.13900
C879        C  0.37670714  0.85903556  0.15862459    -0.23800
H880        H  0.35405486  0.82266723  0.12841695     0.15200
H881        H  0.33888714  0.88529488  0.09955591     0.15200
C882        C  0.31721146  0.84708359  0.06791780    -0.23700
H883        H  0.36556054  0.84492713  0.17346881     0.05400
H884        H  0.38631155  0.87627899  0.16876725     0.08700
H885        H  0.39062227  0.85586412  0.15112385     0.08700
H886        H  0.29952113  0.83014000  0.07030312     0.08700
H887        H  0.32598870  0.84649755  0.04950535     0.08700
H888        H  0.31408279  0.86199323  0.06579040     0.05400
C889        C  0.52205994  0.88558822  0.36174679    -0.20400
C890        C  0.50980037  0.88794921  0.34034759    -0.06900
C891        C  0.48939352  0.86652155  0.33029625     0.13900
C892        C  0.48108685  0.84462574  0.34320113    -0.20400
C893        C  0.49141824  0.84307251  0.36655680    -0.06900
C894        C  0.51289177  0.86363301  0.37529459     0.13900
C895        C  0.52613780  0.86280946  0.39906237    -0.23800
H896        H  0.53815137  0.90101928  0.36921103     0.15200
H897        H  0.46491982  0.82883657  0.33598595     0.15200
C898        C  0.47422722  0.86541863  0.30727379    -0.23700
H899        H  0.54350693  0.87999255  0.40176445     0.05400
H900        H  0.52993419  0.84839148  0.39666631     0.08700
H901        H  0.51538759  0.85953866  0.41720942     0.08700
H902        H  0.47978279  0.88269119  0.29777927     0.08700
H903        H  0.45549417  0.85771595  0.31410615     0.08700
H904        H  0.47429927  0.85354743  0.29185590     0.05400
C905        C  0.47184042  0.84708309  0.12006991    -0.20400
C906        C  0.48472094  0.84357927  0.10071013    -0.06900
C907        C  0.50852286  0.86228325  0.09510423     0.13900
C908        C  0.51806694  0.88461693  0.10761801    -0.20400
C909        C  0.50450569  0.88887770  0.12577818    -0.06900
C910        C  0.48118649  0.86903348  0.13289444     0.13900
C911        C  0.46538222  0.87000516  0.15395814    -0.23800
H912        H  0.45375918  0.83254545  0.12473804     0.15200
H913        H  0.53612680  0.89866065  0.10264711     0.15200
C914        C  0.52413218  0.85873845  0.07638087    -0.23700
H915        H  0.44788841  0.85275851  0.15585005     0.05400
H916        H  0.46100319  0.88367862  0.14959924     0.08700
H917        H  0.47389995  0.87315767  0.17349144     0.08700
H918        H  0.51692717  0.85586822  0.05607075     0.08700
H919        H  0.52490491  0.84303017  0.08280241     0.08700
H920        H  0.54274767  0.87461642  0.07577099     0.05400
C921        C  0.12936450  0.48550472  0.13980043    -0.20400
C922        C  0.10886342  0.48305827  0.12777416    -0.06900
C923        C  0.11018078  0.48784210  0.10011683     0.13900
C924        C  0.13235086  0.49817149  0.08694181    -0.20400
C925        C  0.15334230  0.50394620  0.10029955    -0.06900
C926        C  0.15154762  0.49629504  0.12668382     0.13900
C927        C  0.17299649  0.49965482  0.14134629    -0.23800
H928        H  0.12901393  0.48043242  0.16005433     0.15200
H929        H  0.13354999  0.50315429  0.06633029     0.15200
C930        C  0.08873543  0.48303565  0.08413226    -0.23700
H931        H  0.16799319  0.49092326  0.16111212     0.05400
H932        H  0.18626401  0.51899659  0.14444366     0.08700
H933        H  0.18135380  0.49157482  0.13000472     0.08700
H934        H  0.08063776  0.49278432  0.09201769     0.08700
H935        H  0.07518620  0.46353766  0.08380699     0.08700
H936        H  0.09365358  0.48884302  0.06326680     0.05400
C937        C  0.14742805  0.48916781  0.36689685    -0.20400
C938        C  0.15117828  0.50343842  0.38894894    -0.06900
C939        C  0.13137781  0.50282598  0.40072668     0.13900
C940        C  0.10920648  0.49054735  0.38802553    -0.20400
C941        C  0.10644017  0.47954470  0.36347324    -0.06900
C942        C  0.12481025  0.47590741  0.35506481     0.13900
C943        C  0.12073411  0.45662595  0.33605565    -0.23800
H944        H  0.16207934  0.48789836  0.35925551     0.15200
H945        H  0.09448799  0.49149699  0.39604380     0.15200
C946        C  0.13372122  0.51652829  0.42546767    -0.23700
H947        H  0.12683011  0.44539929  0.34513285     0.05400
H948        H  0.13119510  0.46481986  0.31766649     0.08700
H949        H  0.10149434  0.44421567  0.33154998     0.08700
H950        H  0.14727897  0.53590272  0.42244228     0.08700
H951        H  0.13907061  0.50946296  0.44218979     0.08700
H952        H  0.11656692  0.51479126  0.43102593     0.05400
C953        C  0.07011593  0.45569285  0.23017957    -0.20400
C954        C  0.06898864  0.47437673  0.21818259    -0.06900
C955        C  0.06662560  0.49047955  0.23431822     0.13900
C956        C  0.06487107  0.48708801  0.26164974    -0.20400
C957        C  0.06660919  0.46890056  0.27364028    -0.06900
C958        C  0.06901941  0.45275519  0.25769753     0.13900
C959        C  0.06991632  0.43197556  0.26881745    -0.23800
H960        H  0.07176203  0.44319322  0.21794523     0.15200
H961        H  0.06308540  0.49944266  0.27385041     0.15200
C962        C  0.06803157  0.51253179  0.22352056    -0.23700
H963        H  0.05503840  0.41496871  0.26048603     0.05400
H964        H  0.06810065  0.43044733  0.29054414     0.08700
H965        H  0.08720871  0.43399207  0.26331963     0.08700
H966        H  0.05244192  0.50770754  0.21097328     0.08700
H967        H  0.08498788  0.52332054  0.21232243     0.08700
H968        H  0.06814626  0.52411500  0.23943485     0.05400
C969        C  0.85616301  0.35213735  0.13631534    -0.20400
C970        C  0.87825410  0.36976008  0.12473694    -0.06900
C971        C  0.87791952  0.37602440  0.09786489     0.13900
C972        C  0.85587338  0.36745084  0.08529073    -0.20400
C973        C  0.83398029  0.35279392  0.09847425    -0.06900
C974        C  0.83417495  0.34396060  0.12382643     0.13900
C975        C  0.81134585  0.32626626  0.13824600    -0.23800
H976        H  0.85526558  0.34573959  0.15607052     0.15200
H977        H  0.85580131  0.37341069  0.06534186     0.15200
C978        C  0.90048874  0.39266170  0.08235006    -0.23700
H979        H  0.81492000  0.32002974  0.15704908     0.05400
H980        H  0.80028171  0.31025455  0.12578947     0.08700
H981        H  0.80112776  0.33473323  0.14321951     0.08700
H982        H  0.91114465  0.38429469  0.07988857     0.08700
H983        H  0.91137541  0.41027557  0.09210990     0.08700
H984        H  0.89647079  0.39623176  0.06220609     0.05400
C985        C  0.97996857  0.41101927  0.16485345    -0.20400
C986        C  0.96859422  0.41608054  0.14496365    -0.06900
C987        C  0.98243921  0.43193767  0.12428128     0.13900
C988        C  0.00756309  0.44395024  0.12532591    -0.20400
C989        C  0.01892400  0.44107218  0.14708811    -0.06900
C990        C  0.00499347  0.42368469  0.16651631     0.13900
C991        C  0.01639229  0.41901858  0.18950238    -0.23800
H992        H  0.96922731  0.39795992  0.17986453     0.15200
H993        H  0.01837807  0.45689222  0.11010734     0.15200
C994        C  0.97084400  0.43722302  0.10201901    -0.23700
H995        H  0.00290038  0.40383245  0.20195382     0.05400
H996        H  0.02554181  0.43509584  0.20211464     0.08700
H997        H  0.02951187  0.41463383  0.18227855     0.08700
H998        H  0.96063955  0.44484494  0.10996324     0.08700
H999        H  0.95849400  0.42045461  0.09127210     0.08700
H1000       H  0.98431346  0.45034832  0.08773607     0.05400
C1001       C  0.85598260  0.34277545  0.35138071    -0.20400
C1002       C  0.87680660  0.36286985  0.36194841    -0.06900
C1003       C  0.87474201  0.37101589  0.38726323     0.13900
C1004       C  0.85205638  0.36209032  0.39817093    -0.20400
C1005       C  0.83116848  0.34553351  0.38483299    -0.06900
C1006       C  0.83313439  0.33446368  0.36208885     0.13900
C1007       C  0.81136296  0.31408133  0.34892802    -0.23800
H1008       H  0.85692971  0.33425314  0.33378266     0.15200
H1009       H  0.85074750  0.36972712  0.41651543     0.15200
C1010       C  0.89531383  0.39072157  0.40278150    -0.23700
H1011       H  0.81632530  0.30657570  0.33236162     0.05400
H1012       H  0.80007296  0.32040933  0.34073542     0.08700
H1013       H  0.80082633  0.29942449  0.36344189     0.08700
H1014       H  0.89259804  0.40585912  0.40531248     0.08700
H1015       H  0.91304344  0.39811516  0.39385426     0.08700
H1016       H  0.89579502  0.38370294  0.42258120     0.05400
C1017       C  0.97899998  0.40117496  0.33207922    -0.20400
C1018       C  0.96693500  0.40962705  0.34655096    -0.06900
C1019       C  0.97980237  0.42875217  0.36431659     0.13900
C1020       C  0.00470885  0.43987460  0.36577420    -0.20400
C1021       C  0.01698962  0.43414092  0.34780054    -0.06900
C1022       C  0.00406321  0.41386048  0.33165526     0.13900
C1023       C  0.01666374  0.40638084  0.31306068    -0.23800
H1024       H  0.96888260  0.38575396  0.31954137     0.15200
H1025       H  0.01473239  0.45464385  0.37922713     0.15200
C1026       C  0.96821863  0.43898138  0.38056764    -0.23700
H1027       H  0.00383362  0.38961445  0.30252883     0.05400
H1028       H  0.02927017  0.40329584  0.32419341     0.08700
H1029       H  0.02666804  0.42065066  0.29805433     0.08700
H1030       H  0.94876900  0.43001145  0.37707315     0.08700
H1031       H  0.97651134  0.45828172  0.37560998     0.08700
H1032       H  0.97101199  0.43722364  0.40182967     0.05400
C1033       C  0.93573940  0.39413513  0.22809616    -0.20400
C1034       C  0.91607254  0.39283513  0.21590641    -0.06900
C1035       C  0.89652613  0.38909750  0.23145788     0.13900
C1036       C  0.89712235  0.38639707  0.25873054    -0.20400
C1037       C  0.91690908  0.38796577  0.27104060    -0.06900
C1038       C  0.93634433  0.39151710  0.25547741     0.13900
C1039       C  0.95726237  0.39157006  0.26729047    -0.23800
H1040       H  0.95061002  0.39703009  0.21621642     0.15200
H1041       H  0.88218502  0.38357268  0.27060289     0.15200
C1042       C  0.87551103  0.38916726  0.21977876    -0.23700
H1043       H  0.96998964  0.39297551  0.25193910     0.05400
H1044       H  0.95064875  0.37454792  0.27831472     0.08700
H1045       H  0.96735985  0.40710074  0.28050747     0.08700
H1046       H  0.86484713  0.37332942  0.20706683     0.08700
H1047       H  0.88191398  0.40579002  0.20802738     0.08700
H1048       H  0.86324389  0.38845651  0.23530149     0.05400
C1049       C  0.11277715  0.64727708  0.08890132    -0.20400
C1050       C  0.11346878  0.64908858  0.11669543    -0.06900
C1051       C  0.13653608  0.66031047  0.12887166     0.13900
C1052       C  0.15683210  0.66697937  0.11359279    -0.20400
C1053       C  0.15517936  0.66150697  0.08690430    -0.06900
C1054       C  0.13312557  0.65290981  0.07394107     0.13900
C1055       C  0.13027008  0.64784499  0.04477730    -0.23800
H1056       H  0.09585397  0.63877417  0.07877555     0.15200
H1057       H  0.17407128  0.67470075  0.12316502     0.15200
C1058       C  0.14053579  0.66341733  0.15818267    -0.23700
H1059       H  0.11174461  0.64116021  0.03805526     0.05400
H1060       H  0.13428844  0.63390229  0.04006514     0.08700
H1061       H  0.14252064  0.66456352  0.03355425     0.08700
H1062       H  0.13011869  0.64575595  0.16805687     0.08700
H1063       H  0.13621854  0.67643517  0.16569661     0.08700
H1064       H  0.15951688  0.67081697  0.16361492     0.05400
C1065       C  0.04851946  0.54671426  0.15223241    -0.20400
C1066       C  0.06992745  0.56815853  0.15826983    -0.06900
C1067       C  0.08967344  0.56717812  0.16722717     0.13900
C1068       C  0.08865232  0.54546369  0.16608396    -0.20400
C1069       C  0.06783686  0.52423359  0.15804681    -0.06900
C1070       C  0.04724326  0.52471617  0.15170718     0.13900
C1071       C  0.02457936  0.50268310  0.14237047    -0.23800
H1072       H  0.03308648  0.54735513  0.14666622     0.15200
H1073       H  0.10426170  0.54504879  0.17181751     0.15200
C1074       C  0.11177246  0.58844009  0.17885062    -0.23700
H1075       H  0.01076670  0.50668640  0.13685619     0.05400
H1076       H  0.01680197  0.48880897  0.15810352     0.08700
H1077       H  0.02858275  0.49557973  0.12469134     0.08700
H1078       H  0.11501235  0.58356469  0.19870324     0.08700
H1079       H  0.10995974  0.60406722  0.18149622     0.08700
H1080       H  0.12752061  0.59370229  0.16604140     0.05400
C1081       C  0.13863012  0.64633293  0.38654712    -0.20400
C1082       C  0.15992883  0.65824543  0.37190927    -0.06900
C1083       C  0.15948246  0.66509395  0.34571582     0.13900
C1084       C  0.13740512  0.65789351  0.33405577    -0.20400
C1085       C  0.11538038  0.64317410  0.34753887    -0.06900
C1086       C  0.11638753  0.63835045  0.37483499     0.13900
C1087       C  0.09430455  0.62334630  0.39170892    -0.23800
H1088       H  0.13923123  0.64167738  0.40694721     0.15200
H1089       H  0.13783804  0.66207103  0.31344480     0.15200
C1090       C  0.18217964  0.67958834  0.32972190    -0.23700
H1091       H  0.09884353  0.62028599  0.41182348     0.05400
H1092       H  0.08236403  0.60540760  0.38297422     0.08700
H1093       H  0.08469314  0.63279347  0.39427446     0.08700
H1094       H  0.19061449  0.66906771  0.32641202     0.08700
H1095       H  0.19485592  0.69639729  0.34025585     0.08700
H1096       H  0.17869038  0.68459263  0.31005528     0.05400
C1097       C  0.08276809  0.53486527  0.31071461    -0.20400
C1098       C  0.06357073  0.51680745  0.32550494    -0.06900
C1099       C  0.04478197  0.51994655  0.33318650     0.13900
C1100       C  0.04655102  0.54174930  0.32749553    -0.20400
C1101       C  0.06668069  0.56038826  0.31441173    -0.06900
C1102       C  0.08429232  0.55634152  0.30458782     0.13900
C1103       C  0.10498079  0.57438011  0.28772438    -0.23800
H1104       H  0.09681000  0.53221120  0.30398199     0.15200
H1105       H  0.03298292  0.54480958  0.33495934     0.15200
C1106       C  0.02341713  0.50135223  0.34863570    -0.23700
H1107       H  0.10514819  0.56587382  0.26895715     0.05400
H1108       H  0.12209293  0.58081517  0.29822903     0.08700
H1109       H  0.10360479  0.58991063  0.28258633     0.08700
H1110       H  0.02193909  0.50908551  0.36739274     0.08700
H1111       H  0.02473162  0.48583887  0.35343999     0.08700
H1112       H  0.00697292  0.49488076  0.33688008     0.05400
C1113       C  0.05075902  0.60912728  0.24656322    -0.20400
C1114       C  0.07318203  0.61748163  0.25829444    -0.06900
C1115       C  0.09376128  0.62732558  0.24182156     0.13900
C1116       C  0.09146539  0.63005933  0.21495517    -0.20400
C1117       C  0.06925208  0.62206570  0.20321712    -0.06900
C1118       C  0.04859025  0.61170203  0.21936716     0.13900
C1119       C  0.02419475  0.60394494  0.20883745    -0.23800
H1120       H  0.03469302  0.60070523  0.25859390     0.15200
H1121       H  0.10728135  0.63723896  0.20283070     0.15200
C1122       C  0.11831756  0.63362077  0.25071872    -0.23700
H1123       H  0.01696549  0.61333178  0.21974060     0.05400
H1124       H  0.01188341  0.58428974  0.21165228     0.08700
H1125       H  0.02460290  0.60837880  0.18769560     0.08700
H1126       H  0.11913929  0.62856955  0.27122890     0.08700
H1127       H  0.13124786  0.65320915  0.24823919     0.08700
H1128       H  0.12436021  0.62394117  0.23832779     0.05400
C1129       C  0.83566268  0.49807524  0.12464865    -0.20400
C1130       C  0.83444183  0.50394644  0.09840442    -0.06900
C1131       C  0.85516287  0.52368451  0.08661412     0.13900
C1132       C  0.87688645  0.53539262  0.10061155    -0.20400
C1133       C  0.87881975  0.52762097  0.12589698    -0.06900
C1134       C  0.85723418  0.50933634  0.13858642     0.13900
C1135       C  0.85621789  0.50033007  0.16645551    -0.23800
H1136       H  0.81968679  0.48354529  0.13409148     0.15200
H1137       H  0.89255413  0.54964615  0.09071487     0.15200
C1138       C  0.85491334  0.53228451  0.05907168    -0.23700
H1139       H  0.83816500  0.48472835  0.17156788     0.05400
H1140       H  0.85985576  0.51434917  0.18094381     0.08700
H1141       H  0.86877260  0.49421484  0.16921756     0.08700
H1142       H  0.84075427  0.53651519  0.05751685     0.08700
H1143       H  0.85168438  0.51836152  0.04453350     0.08700
H1144       H  0.87225929  0.54878469  0.05376320     0.05400
C1145       C  0.93042674  0.48793750  0.17696690    -0.20400
C1146       C  0.93022613  0.49678402  0.15182499    -0.06900
C1147       C  0.93104367  0.48472251  0.12931715     0.13900
C1148       C  0.93021734  0.46322705  0.13255045    -0.20400
C1149       C  0.92797115  0.45296938  0.15757750    -0.06900
C1150       C  0.92880553  0.46589802  0.18023035     0.13900
C1151       C  0.92631981  0.45655826  0.20796073    -0.23800
H1152       H  0.93007516  0.49736247  0.19421231     0.15200
H1153       H  0.92984218  0.45358987  0.11511124     0.15200
C1154       C  0.93204900  0.49349336  0.10152162    -0.23700
H1155       H  0.91020916  0.45468893  0.21741422     0.05400
H1156       H  0.94235779  0.46941179  0.21951902     0.08700
H1157       H  0.92449526  0.43895372  0.20893441     0.08700
H1158       H  0.93271549  0.51062577  0.10053766     0.08700
H1159       H  0.91598134  0.47983949  0.09057087     0.08700
H1160       H  0.94831061  0.49628114  0.09144041     0.05400
C1161       C  0.98271231  0.56134812  0.11393926    -0.20400
C1162       C  0.97193615  0.57287137  0.12477200    -0.06900
C1163       C  0.98638175  0.59692097  0.13276873     0.13900
C1164       C  0.01133440  0.60764624  0.13357565    -0.20400
C1165       C  0.02190046  0.59499772  0.12549527    -0.06900
C1166       C  0.00762174  0.57233602  0.11367474     0.13900
C1167       C  0.01793939  0.55910381  0.10109707    -0.23800
H1168       H  0.97164035  0.54302973  0.10730313     0.15200
H1169       H  0.02251730  0.62548338  0.14164375     0.15200
C1170       C  0.97538587  0.61090311  0.14096330    -0.23700
H1171       H  0.01329957  0.55658292  0.07984356     0.05400
H1172       H  0.01002920  0.54112256  0.11036631     0.08700
H1173       H  0.03772527  0.56887133  0.10264244     0.08700
H1174       H  0.96220463  0.60142922  0.15698480     0.08700
H1175       H  0.96594461  0.61271778  0.12388225     0.08700
H1176       H  0.98911896  0.62914955  0.14784578     0.05400
C1177       C  0.86368075  0.52407857  0.33719353    -0.20400
C1178       C  0.88394576  0.52634915  0.34971038    -0.06900
C1179       C  0.88158766  0.51973947  0.37686491     0.13900
C1180       C  0.85882108  0.50769748  0.38876386    -0.20400
C1181       C  0.83820926  0.50230521  0.37479191    -0.06900
C1182       C  0.84090258  0.51185172  0.34914914     0.13900
C1183       C  0.81990932  0.50917754  0.33412313    -0.23800
H1184       H  0.86479246  0.53062089  0.31744713     0.15200
H1185       H  0.85699727  0.50142444  0.40895125     0.15200
C1186       C  0.90263052  0.52454417  0.39362549    -0.23700
H1187       H  0.82555027  0.51919123  0.31510221     0.05400
H1188       H  0.81091281  0.51628367  0.34600598     0.08700
H1189       H  0.80699583  0.49003352  0.32950659     0.08700
H1190       H  0.91537023  0.54412159  0.39554998     0.08700
H1191       H  0.91194849  0.51614853  0.38531248     0.08700
H1192       H  0.89695871  0.51728128  0.41395252     0.05400
C1193       C  0.90568886  0.46687877  0.31127855    -0.20400
C1194       C  0.92730069  0.48810635  0.31752953    -0.06900
C1195       C  0.94788618  0.48689287  0.32212080     0.13900
C1196       C  0.94541936  0.46429055  0.32318269    -0.20400
C1197       C  0.92316379  0.44308127  0.31934165    -0.06900
C1198       C  0.90346354  0.44462522  0.31140566     0.13900
C1199       C  0.87968952  0.42334493  0.30292793    -0.23800
H1200       H  0.89000079  0.46754252  0.30666756     0.15200
H1201       H  0.96071879  0.46316979  0.32848423     0.15200
C1202       C  0.97240985  0.50841128  0.32729783    -0.23700
H1203       H  0.87534079  0.42676069  0.28287908     0.05400
H1204       H  0.86542607  0.42063831  0.31683810     0.08700
H1205       H  0.87956278  0.40655279  0.30192863     0.08700
H1206       H  0.97841911  0.50679886  0.34720312     0.08700
H1207       H  0.97318191  0.52543630  0.32643718     0.08700
H1208       H  0.98517551  0.50938788  0.31229066     0.05400
C1209       C  0.98719918  0.59054520  0.31750349    -0.20400
C1210       C  0.97453955  0.57089746  0.33463081    -0.06900
C1211       C  0.98699140  0.56619679  0.35382978     0.13900
C1212       C  0.01204671  0.57831487  0.35207307    -0.20400
C1213       C  0.02459086  0.59635346  0.33305231    -0.06900
C1214       C  0.01229821  0.60420574  0.31757764     0.13900
C1215       C  0.02561008  0.62730648  0.30204341    -0.23800
H1216       H  0.97745516  0.59492174  0.30382999     0.15200
H1217       H  0.02175787  0.57319885  0.36488763     0.15200
C1218       C  0.97380838  0.54813228  0.37562372    -0.23700
H1219       H  0.01321465  0.63051854  0.29060860     0.05400
H1220       H  0.03853891  0.62733214  0.28823305     0.08700
H1221       H  0.03572502  0.64244750  0.31585486     0.08700
H1222       H  0.96056943  0.53025514  0.36755256     0.08700
H1223       H  0.96407327  0.55414935  0.38793276     0.08700
H1224       H  0.98628850  0.54622275  0.38852800     0.05400
C1225       C  0.94315566  0.56159815  0.24969895    -0.20400
C1226       C  0.92655666  0.53935831  0.26119051    -0.06900
C1227       C  0.91111147  0.51974295  0.24509308     0.13900
C1228       C  0.91170477  0.52311792  0.21787910    -0.20400
C1229       C  0.92783285  0.54541543  0.20631835    -0.06900
C1230       C  0.94400209  0.56483830  0.22223599     0.13900
C1231       C  0.96146125  0.58900564  0.21043348    -0.23800
H1232       H  0.95500538  0.57652728  0.26224776     0.15200
H1233       H  0.89967938  0.50816198  0.20541981     0.15200
C1234       C  0.89459272  0.49504670  0.25641823    -0.23700
H1235       H  0.97308036  0.60208210  0.22567748     0.05400
H1236       H  0.95141866  0.59607733  0.20063645     0.08700
H1237       H  0.97311013  0.58737651  0.19590603     0.08700
H1238       H  0.88216777  0.49523791  0.27104437     0.08700
H1239       H  0.90553940  0.48894442  0.26590999     0.08700
H1240       H  0.88365841  0.48185065  0.24093672     0.05400
C1241       C  0.49378414  0.34236833  0.12965297    -0.20400
C1242       C  0.49177979  0.33972325  0.10229358    -0.06900
C1243       C  0.47489373  0.34324941  0.08920244     0.13900
C1244       C  0.46238795  0.35150596  0.10351635    -0.20400
C1245       C  0.46647499  0.35698479  0.13058847    -0.06900
C1246       C  0.48172220  0.35097961  0.14396217     0.13900
C1247       C  0.48699399  0.35473706  0.17308702    -0.23800
H1248       H  0.50598602  0.33881805  0.13992988     0.15200
H1249       H  0.45105513  0.35566005  0.09254824     0.15200
C1250       C  0.47066449  0.33965090  0.05991622    -0.23700
H1251       H  0.50096711  0.35111699  0.17910850     0.05400
H1252       H  0.47077302  0.34213397  0.18467610     0.08700
H1253       H  0.49379965  0.37350390  0.17842644     0.08700
H1254       H  0.46486947  0.32095700  0.05476317     0.08700
H1255       H  0.48727497  0.35252935  0.04895660     0.08700
H1256       H  0.45643972  0.34267756  0.05325445     0.05400
C1257       C  0.48946374  0.36670945  0.39578184    -0.20400
C1258       C  0.49460014  0.35149813  0.38202168    -0.06900
C1259       C  0.48478476  0.34376906  0.35666700     0.13900
C1260       C  0.47252229  0.35346627  0.34480938    -0.20400
C1261       C  0.47049731  0.37162826  0.35690273    -0.06900
C1262       C  0.47750176  0.37674243  0.38380251     0.13900
C1263       C  0.47323074  0.39327429  0.40010090    -0.23800
H1264       H  0.49592877  0.37181286  0.41576802     0.15200
H1265       H  0.46594102  0.34737584  0.32522053     0.15200
C1266       C  0.48740097  0.32558187  0.34160779    -0.23700
H1267       H  0.48070711  0.39567018  0.42025094     0.05400
H1268       H  0.45374996  0.38549972  0.40248421     0.08700
H1269       H  0.48176400  0.41135830  0.39099322     0.08700
H1270       H  0.48058416  0.30908084  0.35374442     0.08700
H1271       H  0.50645145  0.33316478  0.33630633     0.08700
H1272       H  0.47712600  0.32034286  0.32291074     0.05400
C1273       C  0.46919405  0.38902312  0.22458058    -0.20400
C1274       C  0.45260661  0.39246583  0.21129304    -0.06900
C1275       C  0.43933386  0.39984792  0.22598142     0.13900
C1276       C  0.44275254  0.40290863  0.25345185    -0.20400
C1277       C  0.45904486  0.39888199  0.26653980    -0.06900
C1278       C  0.47333063  0.39304827  0.25154303     0.13900
C1279       C  0.49400939  0.39208195  0.26274397    -0.23800
H1280       H  0.47987480  0.38397128  0.21362805     0.15200
H1281       H  0.43209171  0.40774509  0.26487155     0.15200
C1282       C  0.42037621  0.40290279  0.21362479    -0.23700
H1283       H  0.51035359  0.40372131  0.25069984     0.05400
H1284       H  0.48983828  0.37338872  0.26208842     0.08700
H1285       H  0.49860703  0.39877257  0.28315663     0.08700
H1286       H  0.40557267  0.38531211  0.20669359     0.08700
H1287       H  0.42775450  0.41599770  0.19713599     0.08700
H1288       H  0.41254832  0.40951166  0.22807293     0.05400
C1289       C  0.37494576  0.49302955  0.09152798    -0.20400
C1290       C  0.36445978  0.48029051  0.11511899    -0.06900
C1291       C  0.34234642  0.47733567  0.12300857     0.13900
C1292       C  0.33524095  0.49216208  0.11171221    -0.20400
C1293       C  0.34790178  0.50758953  0.09048352    -0.06900
C1294       C  0.36720755  0.50684952  0.07925911     0.13900
C1295       C  0.38088498  0.52167436  0.05538801    -0.23800
H1296       H  0.39069933  0.49379606  0.08387225     0.15200
H1297       H  0.31915362  0.49098834  0.11889846     0.15200
C1298       C  0.32446647  0.45715467  0.14059228    -0.23700
H1299       H  0.39608010  0.51963275  0.05026209     0.05400
H1300       H  0.38835068  0.54097632  0.05925952     0.08700
H1301       H  0.36887560  0.51585620  0.03804009     0.08700
H1302       H  0.32264960  0.46436051  0.15958013     0.08700
H1303       H  0.32917435  0.44351782  0.14401535     0.08700
H1304       H  0.30671721  0.44752837  0.13081622     0.05400
C1305       C  0.43672051  0.42778195  0.11282192    -0.20400
C1306       C  0.42750687  0.40740595  0.12905684    -0.06900
C1307       C  0.40452482  0.39731426  0.14027877     0.13900
C1308       C  0.39368927  0.41074563  0.14013240    -0.20400
C1309       C  0.40421487  0.43253044  0.12625402    -0.06900
C1310       C  0.42434988  0.43964289  0.11004533     0.13900
C1311       C  0.43273945  0.45975594  0.09023530    -0.23800
H1312       H  0.45380970  0.43474753  0.10299095     0.15200
H1313       H  0.37749502  0.40469120  0.15152025     0.15200
C1314       C  0.39161491  0.37248791  0.15216238    -0.23700
H1315       H  0.44939258  0.46373886  0.08003007     0.05400
H1316       H  0.43609455  0.47638263  0.09969318     0.08700
H1317       H  0.41860740  0.45444255  0.07519106     0.08700
H1318       H  0.40282254  0.37073092  0.16703626     0.08700
H1319       H  0.38770728  0.35931154  0.13636987     0.08700
H1320       H  0.37440386  0.36783349  0.16151448     0.05400
C1321       C  0.34900110  0.47520367  0.36968720    -0.20400
C1322       C  0.35192450  0.47863419  0.34209311    -0.06900
C1323       C  0.34462184  0.49352388  0.33022814     0.13900
C1324       C  0.33685982  0.50546933  0.34616234    -0.20400
C1325       C  0.33686244  0.50415962  0.37369142    -0.06900
C1326       C  0.34194859  0.48784928  0.38557822     0.13900
C1327       C  0.34148781  0.48453397  0.41507325    -0.23800
H1328       H  0.35472870  0.46455772  0.37958855     0.15200
H1329       H  0.33211619  0.51724895  0.33692178     0.15200
C1330       C  0.34587536  0.49845570  0.30096764    -0.23700
H1331       H  0.34541108  0.47065709  0.42073767     0.05400
H1332       H  0.32344799  0.47868883  0.42297523     0.08700
H1333       H  0.35526218  0.50155682  0.42443874     0.08700
H1334       H  0.33293661  0.48177915  0.29049860     0.08700
H1335       H  0.36435616  0.50624530  0.29338351     0.08700
H1336       H  0.34078980  0.51162194  0.29605279     0.05400
C1337       C  0.41627384  0.44283993  0.35742922    -0.20400
C1338       C  0.40117428  0.43864187  0.33592971    -0.06900
C1339       C  0.39715066  0.42107550  0.31725272     0.13900
C1340       C  0.41055643  0.41035055  0.31859142    -0.20400
C1341       C  0.42716460  0.41603252  0.33869313    -0.06900
C1342       C  0.42892632  0.43114647  0.35938518     0.13900
C1343       C  0.44464442  0.43549266  0.38291021    -0.23800
H1344       H  0.41911996  0.45615587  0.37188005     0.15200
H1345       H  0.40859371  0.39800675  0.30330837     0.15200
C1346       C  0.37945331  0.41385804  0.29514781    -0.23700
H1347       H  0.44463159  0.44850402  0.39672612     0.05400
H1348       H  0.46338010  0.44253759  0.37675485     0.08700
H1349       H  0.43788130  0.41831910  0.39371014     0.08700
H1350       H  0.38911748  0.41949651  0.27595356     0.08700
H1351       H  0.36827726  0.42168147  0.29711745     0.08700
H1352       H  0.36706176  0.39405348  0.29532421     0.05400
C1353       C  0.40866030  0.47975402  0.21655699    -0.20400
C1354       C  0.38815005  0.46163565  0.20396758    -0.06900
C1355       C  0.36832275  0.44478013  0.21929438     0.13900
C1356       C  0.36912077  0.44739784  0.24683304    -0.20400
C1357       C  0.38921845  0.46655848  0.25938189    -0.06900
C1358       C  0.40939139  0.48289756  0.24383781     0.13900
C1359       C  0.43107122  0.50495461  0.25496342    -0.23800
H1360       H  0.42398488  0.49236672  0.20483063     0.15200
H1361       H  0.35374923  0.43465487  0.25860082     0.15200
C1362       C  0.34660427  0.42384230  0.20674473    -0.23700
H1363       H  0.44361117  0.51684621  0.23923246     0.05400
H1364       H  0.44139563  0.50010298  0.26781498     0.08700
H1365       H  0.42535464  0.51554666  0.26587435     0.08700
H1366       H  0.35205596  0.41323137  0.19518108     0.08700
H1367       H  0.33776539  0.43025101  0.19350309     0.08700
H1368       H  0.33323130  0.41177857  0.22175281     0.05400
C1369       C  0.64750483  0.52012741  0.13497354    -0.20400
C1370       C  0.63229601  0.52591982  0.12182538    -0.06900
C1371       C  0.62828266  0.52053767  0.09440760     0.13900
C1372       C  0.63674706  0.50723089  0.08244089    -0.20400
C1373       C  0.64906845  0.49876750  0.09666587    -0.06900
C1374       C  0.65557492  0.50641913  0.12298778     0.13900
C1375       C  0.67040740  0.49971206  0.13905194    -0.23800
H1376       H  0.65188384  0.52446831  0.15536607     0.15200
H1377       H  0.63253194  0.50233756  0.06193531     0.15200
C1378       C  0.61400469  0.52746590  0.07749041    -0.23700
H1379       H  0.67477810  0.50822740  0.15876491     0.05400
H1380       H  0.68757465  0.50573579  0.12867937     0.08700
H1381       H  0.66039924  0.48001493  0.14229611     0.08700
H1382       H  0.62350370  0.54726039  0.07586493     0.08700
H1383       H  0.59574207  0.52003842  0.08556443     0.08700
H1384       H  0.61184238  0.52063476  0.05707244     0.05400
C1385       C  0.54854674  0.46826581  0.16557830    -0.20400
C1386       C  0.54913126  0.48759760  0.15319962    -0.06900
C1387       C  0.52797156  0.48442256  0.14241504     0.13900
C1388       C  0.50659575  0.46174307  0.14421921    -0.20400
C1389       C  0.50629786  0.44224406  0.15605940    -0.06900
C1390       C  0.52741901  0.44586152  0.16777340     0.13900
C1391       C  0.52803162  0.42647457  0.18298327    -0.23800
H1392       H  0.56504915  0.47063259  0.17310532     0.15200
H1393       H  0.49043078  0.45890126  0.13512965     0.15200
C1394       C  0.52846053  0.50426599  0.12714222    -0.23700
H1395       H  0.54544103  0.43349667  0.19308044     0.05400
H1396       H  0.52564997  0.41215763  0.16966406     0.08700
H1397       H  0.51390500  0.41905198  0.19837947     0.08700
H1398       H  0.54156708  0.50995657  0.11072616     0.08700
H1399       H  0.53356153  0.51966028  0.14029391     0.08700
H1400       H  0.51083626  0.49831757  0.11828371     0.05400
C1401       C  0.65259940  0.52848285  0.33932534    -0.20400
C1402       C  0.63717450  0.53365696  0.35309051    -0.06900
C1403       C  0.63244731  0.52657959  0.38018107     0.13900
C1404       C  0.64051622  0.51246942  0.39110366    -0.20400
C1405       C  0.65306382  0.50479858  0.37611890    -0.06900
C1406       C  0.66021002  0.51393483  0.35026021     0.13900
C1407       C  0.67563086  0.50824998  0.33384617    -0.23800
H1408       H  0.65763924  0.53410167  0.31919556     0.15200
H1409       H  0.63576907  0.50624150  0.41131651     0.15200
C1410       C  0.61790275  0.53259040  0.39782239    -0.23700
H1411       H  0.68078845  0.51808874  0.31472328     0.05400
H1412       H  0.66575676  0.48880947  0.32937910     0.08700
H1413       H  0.69233762  0.51347266  0.34463767     0.08700
H1414       H  0.59992673  0.52591179  0.38945143     0.08700
H1415       H  0.62757846  0.55221608  0.40084127     0.08700
H1416       H  0.61502356  0.52431245  0.41771356     0.05400
C1417       C  0.53455361  0.49794207  0.32686653    -0.20400
C1418       C  0.55486436  0.49793644  0.31874671    -0.06900
C1419       C  0.55201377  0.47679813  0.30799070     0.13900
C1420       C  0.52964054  0.45544537  0.30947908    -0.20400
C1421       C  0.50967566  0.45477701  0.32013151    -0.06900
C1422       C  0.51181586  0.47660678  0.32733404     0.13900
C1423       C  0.49096199  0.47816111  0.33628523    -0.23800
H1424       H  0.53656028  0.51440467  0.33397092     0.15200
H1425       H  0.52785585  0.43899579  0.30264997     0.15200
C1426       C  0.57208361  0.47607100  0.29466379    -0.23700
H1427       H  0.48885916  0.49015196  0.32268937     0.05400
H1428       H  0.49410330  0.48541909  0.35657901     0.08700
H1429       H  0.47392059  0.46075325  0.33609199     0.08700
H1430       H  0.57620652  0.46427348  0.30607449     0.08700
H1431       H  0.58866919  0.49399400  0.29243876     0.08700
H1432       H  0.56644530  0.46874391  0.27449449     0.05400
C1433       C  0.58632459  0.53021550  0.25469670    -0.20400
C1434       C  0.60788041  0.54836535  0.26563960    -0.06900
C1435       C  0.62730729  0.56340911  0.24863953     0.13900
C1436       C  0.62481034  0.55911124  0.22134435    -0.20400
C1437       C  0.60334074  0.54035273  0.21045657    -0.06900
C1438       C  0.58388744  0.52561821  0.22763963     0.13900
C1439       C  0.56135950  0.50335964  0.21856759    -0.23800
H1440       H  0.57154675  0.51840073  0.26763974     0.15200
H1441       H  0.63976204  0.57066605  0.20839274     0.15200
C1442       C  0.65060932  0.58443090  0.25840900    -0.23700
H1443       H  0.54889129  0.49330911  0.23516966     0.05400
H1444       H  0.56631814  0.49131766  0.20972750     0.08700
H1445       H  0.55135475  0.50764677  0.20454246     0.08700
H1446       H  0.65025353  0.58761341  0.27978081     0.08700
H1447       H  0.65447943  0.60099555  0.24792656     0.08700
H1448       H  0.66533740  0.58140808  0.25435414     0.05400
C1449       C  0.52646555  0.64994251  0.10862145    -0.20400
C1450       C  0.52034944  0.64204747  0.13500218    -0.06900
C1451       C  0.50401186  0.64679564  0.14801335     0.13900
C1452       C  0.49275196  0.65639951  0.13370181    -0.20400
C1453       C  0.49705110  0.66184591  0.10676766    -0.06900
C1454       C  0.51510989  0.65963476  0.09439989     0.13900
C1455       C  0.52206083  0.66651412  0.06591060    -0.23800
H1456       H  0.53901393  0.64720651  0.09811115     0.15200
H1457       H  0.47967745  0.65889717  0.14361626     0.15200
C1458       C  0.49729343  0.64130224  0.17684649    -0.23700
H1459       H  0.53697585  0.66433742  0.05982700     0.05400
H1460       H  0.52809918  0.68563661  0.06278520     0.08700
H1461       H  0.50660675  0.65490474  0.05298137     0.08700
H1462       H  0.51269023  0.65361463  0.18937552     0.08700
H1463       H  0.49093374  0.62247163  0.18163980     0.08700
H1464       H  0.48258442  0.64397760  0.18240822     0.05400
C1465       C  0.48749565  0.53893861  0.15424571    -0.20400
C1466       C  0.48615432  0.55768766  0.16514395    -0.06900
C1467       C  0.46422156  0.55268504  0.17596604     0.13900
C1468       C  0.44339167  0.53058464  0.17088694    -0.20400
C1469       C  0.44416900  0.51252105  0.15724019    -0.06900
C1470       C  0.46676349  0.51607057  0.15095327     0.13900
C1471       C  0.46979991  0.49672018  0.14011253    -0.23800
H1472       H  0.50458959  0.54237987  0.14724526     0.15200
H1473       H  0.42627630  0.52747701  0.17739806     0.15200
C1474       C  0.46231456  0.57019624  0.19306880    -0.23700
H1475       H  0.47682682  0.50143904  0.11964140     0.05400
H1476       H  0.48262443  0.49498837  0.15258902     0.08700
H1477       H  0.45299356  0.47904981  0.14026453     0.08700
H1478       H  0.48012911  0.58578521  0.19834006     0.08700
H1479       H  0.45319698  0.56123215  0.21187998     0.08700
H1480       H  0.45175378  0.57649432  0.18284521     0.05400
C1481       C  0.57105608  0.56560082  0.11781687    -0.20400
C1482       C  0.58877422  0.57094579  0.13659716    -0.06900
C1483       C  0.59612241  0.59048958  0.15364714     0.13900
C1484       C  0.58400679  0.60270561  0.15325706    -0.20400
C1485       C  0.56436336  0.59547615  0.13663538    -0.06900
C1486       C  0.55830835  0.57722591  0.11802596     0.13900
C1487       C  0.53750259  0.56843836  0.09947835    -0.23800
H1488       H  0.56584189  0.55101309  0.10426185     0.15200
H1489       H  0.58850214  0.61658706  0.16765070     0.15200
C1490       C  0.61584575  0.59763317  0.17326141    -0.23700
H1491       H  0.54401779  0.57064997  0.07883068     0.05400
H1492       H  0.52826443  0.57831893  0.10150749     0.08700
H1493       H  0.52424219  0.54912184  0.10330581     0.08700
H1494       H  0.63236495  0.60144653  0.16288670     0.08700
H1495       H  0.61028659  0.58292990  0.18771449     0.08700
H1496       H  0.62002823  0.61391250  0.18434128     0.05400
C1497       C  0.53000568  0.65700745  0.37625622    -0.20400
C1498       C  0.52319985  0.64815565  0.35045635    -0.06900
C1499       C  0.50538562  0.65101707  0.33787002     0.13900
C1500       C  0.49394993  0.66029962  0.35205845    -0.20400
C1501       C  0.49869473  0.66620174  0.37865506    -0.06900
C1502       C  0.51790840  0.66577743  0.39056620     0.13900
C1503       C  0.52541936  0.67379843  0.41855018    -0.23800
H1504       H  0.54332994  0.65514094  0.38636397     0.15200
H1505       H  0.47981479  0.66136179  0.34261358     0.15200
C1506       C  0.49649265  0.64291011  0.31006392    -0.23700
H1507       H  0.54175249  0.67381927  0.42391327     0.05400
H1508       H  0.51102221  0.66146065  0.43248013     0.08700
H1509       H  0.52946376  0.69234110  0.42097512     0.08700
H1510       H  0.49047665  0.62385199  0.30723772     0.08700
H1511       H  0.51059489  0.65456856  0.29557448     0.08700
H1512       H  0.48087695  0.64433773  0.30524172     0.05400
C1513       C  0.46400309  0.56400893  0.32009906    -0.20400
C1514       C  0.48318624  0.56291331  0.33023525    -0.06900
C1515       C  0.48002376  0.54026349  0.33524255     0.13900
C1516       C  0.45756105  0.51936465  0.33036807    -0.20400
C1517       C  0.43828870  0.52077748  0.32102558    -0.06900
C1518       C  0.44200510  0.54345456  0.31464057     0.13900
C1519       C  0.42362210  0.54694834  0.30124759    -0.23800
H1520       H  0.46649811  0.58123710  0.31517829     0.15200
H1521       H  0.45472953  0.50197669  0.33524540     0.15200
C1522       C  0.49938596  0.53760894  0.34707519    -0.23700
H1523       H  0.43162257  0.55805443  0.28316382     0.05400
H1524       H  0.41807071  0.55637161  0.31471983     0.08700
H1525       H  0.40752655  0.52998847  0.29487116     0.08700
H1526       H  0.51468465  0.55484465  0.35404379     0.08700
H1527       H  0.50605337  0.53029601  0.33215234     0.08700
H1528       H  0.49221480  0.52532102  0.36439602     0.05400
C1529       C  0.59862550  0.59746753  0.32628320    -0.20400
C1530       C  0.59259163  0.57816830  0.34321609    -0.06900
C1531       C  0.57583577  0.57249911  0.36372703     0.13900
C1532       C  0.56388429  0.58491693  0.36529494    -0.20400
C1533       C  0.56832180  0.60273384  0.34674059    -0.06900
C1534       C  0.58697505  0.61007426  0.32807427     0.13900
C1535       C  0.59421717  0.63040142  0.30893192    -0.23800
H1536       H  0.61163054  0.60193310  0.31066075     0.15200
H1537       H  0.54975037  0.57944095  0.37975882     0.15200
C1538       C  0.56950048  0.55238342  0.38287622    -0.23700
H1539       H  0.61369067  0.64380415  0.31083901     0.05400
H1540       H  0.58474876  0.63984561  0.31261081     0.08700
H1541       H  0.59050488  0.62343431  0.28848391     0.08700
H1542       H  0.58573384  0.55642164  0.39392464     0.08700
H1543       H  0.56240895  0.53528074  0.37214852     0.08700
H1544       H  0.55570298  0.54995268  0.39733844     0.05400
C1545       C  0.55671965  0.63138855  0.25853922    -0.20400
C1546       C  0.53792222  0.61102929  0.27146952    -0.06900
C1547       C  0.52175307  0.59081198  0.25625812     0.13900
C1548       C  0.52457353  0.59173443  0.22891564    -0.20400
C1549       C  0.54219702  0.61259425  0.21595833    -0.06900
C1550       C  0.55912408  0.63241706  0.23099071     0.13900
C1551       C  0.57990472  0.65475084  0.21873119    -0.23800
H1552       H  0.56934214  0.64688602  0.26996618     0.15200
H1553       H  0.51145206  0.57660933  0.21739532     0.15200
C1554       C  0.49967200  0.56926582  0.26771897    -0.23700
H1555       H  0.59688154  0.65832575  0.22759445     0.05400
H1556       H  0.57804261  0.67025121  0.22258801     0.08700
H1557       H  0.58133634  0.65312353  0.19716136     0.08700
H1558       H  0.50435158  0.55962102  0.28190608     0.08700
H1559       H  0.48837000  0.55605451  0.25241263     0.08700
H1560       H  0.48869063  0.57535961  0.27698569     0.05400
C1561       C  0.52860762  0.62953653  0.84028793     0.86400
C1562       C  0.50579274  0.60491797  0.84446772    -0.53800
C1563       C  0.50608128  0.58616871  0.83408601     0.09300
C1564       C  0.53009618  0.59362193  0.82089625     0.20300
C1565       C  0.54853097  0.62667794  0.85253858    -0.54500
C1566       C  0.54929156  0.60787947  0.84197573     0.09400
C1567       C  0.53441100  0.63170662  0.81061896    -0.54100
C1568       C  0.53421518  0.61257087  0.80018014     0.10000
H1569       H  0.48978541  0.60266470  0.85364265     0.14500
H1570       H  0.53112707  0.57860859  0.81278310     0.00300
H1571       H  0.56163622  0.63885434  0.86666779     0.14800
H1572       H  0.53892412  0.64734426  0.79885358     0.14600
C1573       C  0.52692280  0.62458837  0.64703948     0.86400
C1574       C  0.53731774  0.63090530  0.67510937    -0.53800
C1575       C  0.53959898  0.61355350  0.68706524     0.09300
C1576       C  0.53229859  0.59183438  0.66953558     0.20300
C1577       C  0.54468578  0.61968020  0.63234141    -0.54500
C1578       C  0.54728064  0.60248709  0.64443029     0.09400
C1579       C  0.50388905  0.59963199  0.64952074    -0.54100
C1580       C  0.50656577  0.58268329  0.66145854     0.10000
H1581       H  0.54151859  0.64711122  0.68519766     0.14500
H1582       H  0.53449783  0.57789493  0.67909928     0.00300
H1583       H  0.55508963  0.62917777  0.61498664     0.14800
H1584       H  0.48666164  0.59564943  0.64222689     0.14600
C1585       C  0.62086497  0.53978547  0.83757552     0.86400
C1586       C  0.62650139  0.54659066  0.80788266    -0.53800
C1587       C  0.60957586  0.54880890  0.79490850     0.09300
C1588       C  0.58862563  0.54422520  0.81264520     0.20300
C1589       C  0.61749767  0.55965980  0.84862524    -0.54500
C1590       C  0.60028218  0.56151805  0.83583941     0.09400
C1591       C  0.59562954  0.51707065  0.83732647    -0.54100
C1592       C  0.57896688  0.51914625  0.82406542     0.10000
H1593       H  0.64136604  0.54808801  0.79708067     0.14500
H1594       H  0.57481865  0.54599378  0.80224052     0.00300
H1595       H  0.62781746  0.57141916  0.86465722     0.14800
H1596       H  0.59147205  0.50013122  0.84603657     0.14600
C1597       C  0.61546279  0.53089098  0.63793529     0.86400
C1598       C  0.59025568  0.50842728  0.63626853    -0.53800
C1599       C  0.57294375  0.50963978  0.64915244     0.09300
C1600       C  0.58227194  0.53353797  0.66328665     0.20300
C1601       C  0.61288676  0.55185605  0.62872058    -0.54500
C1602       C  0.59536641  0.55298482  0.64187521     0.09400
C1603       C  0.61978599  0.53515959  0.66806785    -0.54100
C1604       C  0.60228313  0.53621786  0.68138020     0.10000
H1605       H  0.58651106  0.49210967  0.62652866     0.14500
H1606       H  0.56825940  0.53500511  0.67355319     0.00300
H1607       H  0.62406957  0.56489992  0.61375897     0.14800
H1608       H  0.63518292  0.53759174  0.67849756     0.14600
C1609       C  0.37088384  0.47495653  0.82907253     0.86400
C1610       C  0.36830864  0.46910441  0.79935668    -0.53800
C1611       C  0.38772482  0.47011255  0.78816396     0.09300
C1612       C  0.40729877  0.47511499  0.80816401     0.20300
C1613       C  0.37518581  0.45583365  0.84100263    -0.54500
C1614       C  0.39426456  0.45611362  0.82992968     0.09400
C1615       C  0.39504999  0.49855344  0.83191302    -0.54100
C1616       C  0.41396510  0.49890946  0.82080236     0.10000
H1617       H  0.35242037  0.46385567  0.78805359     0.14500
H1618       H  0.42260964  0.47474951  0.79977781     0.00300
H1619       H  0.36375689  0.44251870  0.85565663     0.14800
H1620       H  0.39702710  0.51400216  0.84207118     0.14600
C1621       C  0.37972760  0.47385528  0.63193442     0.86400
C1622       C  0.40557049  0.49574855  0.63417134    -0.53800
C1623       C  0.42095321  0.49184435  0.64786761     0.09300
C1624       C  0.40905678  0.46598119  0.65818967     0.20300
C1625       C  0.38247204  0.45399032  0.62014063    -0.54500
C1626       C  0.39777596  0.44996676  0.63387822     0.09400
C1627       C  0.37272771  0.46673120  0.66119968    -0.54100
C1628       C  0.38782453  0.46218554  0.67474332     0.10000
H1629       H  0.41088282  0.51354293  0.62710469     0.14500
H1630       H  0.42130772  0.46245513  0.66946738     0.00300
H1631       H  0.37348884  0.44432175  0.60234015     0.14800
H1632       H  0.35965110  0.46882768  0.67164065     0.14600
C1633       C  0.46623560  0.38866514  0.84002609     0.86400
C1634       C  0.48928773  0.41381999  0.83953101    -0.53800
C1635       C  0.48799445  0.43070757  0.82529413     0.09300
C1636       C  0.46372290  0.42090096  0.81204470     0.20300
C1637       C  0.44633055  0.39262990  0.84921903    -0.54500
C1638       C  0.44517817  0.40954550  0.83466269     0.09400
C1639       C  0.46047897  0.38250443  0.81048623    -0.54100
C1640       C  0.46013529  0.39972008  0.79580579     0.10000
H1641       H  0.50573387  0.41777499  0.84908528     0.14500
H1642       H  0.46270765  0.43449658  0.80004864     0.00300
H1643       H  0.43373311  0.38249011  0.86496818     0.14800
H1644       H  0.45736104  0.36646727  0.80091013     0.14600
C1645       C  0.46138393  0.37549527  0.64214215     0.86400
C1646       C  0.45168156  0.37089372  0.67068967    -0.53800
C1647       C  0.45156356  0.38970660  0.68200801     0.09300
C1648       C  0.45949800  0.41085371  0.66276157     0.20300
C1649       C  0.44435704  0.38111493  0.62745887    -0.54500
C1650       C  0.44358626  0.39967135  0.63823763     0.09400
C1651       C  0.48532021  0.39967239  0.64261957    -0.54100
C1652       C  0.48457583  0.41791924  0.65375404     0.10000
H1653       H  0.44650685  0.35474646  0.68176157     0.14500
H1654       H  0.45914311  0.42614437  0.67121330     0.00300
H1655       H  0.43304180  0.37107464  0.61101725     0.14800
H1656       H  0.50165291  0.40221866  0.63409261     0.14600
C1657       C  0.90578771  0.53087399  0.83340195     0.86400
C1658       C  0.90737741  0.50843313  0.83467375    -0.53800
C1659       C  0.92609574  0.50994518  0.82123564     0.09300
C1660       C  0.94187223  0.53429511  0.80729583     0.20300
C1661       C  0.93046630  0.55163814  0.84252262    -0.54500
C1662       C  0.94919110  0.55315438  0.82905386     0.09400
C1663       C  0.90582720  0.53550498  0.80343066    -0.54100
C1664       C  0.92456930  0.53713756  0.79009489     0.10000
H1665       H  0.89399964  0.49209772  0.84483335     0.14500
H1666       H  0.95694983  0.53594083  0.79565737     0.00300
H1667       H  0.93303772  0.56419931  0.85783148     0.14800
H1668       H  0.89253142  0.53703030  0.79275344     0.14600
C1669       C  0.90351912  0.53516458  0.63713800     0.86400
C1670       C  0.90731042  0.54441326  0.66554245    -0.53800
C1671       C  0.92709490  0.54710823  0.67742627     0.09300
C1672       C  0.94236477  0.54183197  0.65937849     0.20300
C1673       C  0.92704803  0.55426797  0.62284519    -0.54500
C1674       C  0.94721736  0.55750733  0.63476929     0.09400
C1675       C  0.90542239  0.51288209  0.63808795    -0.54100
C1676       C  0.92554956  0.51631402  0.64961363     0.10000
H1677       H  0.89469638  0.54714594  0.67613500     0.14500
H1678       H  0.95878943  0.54455649  0.66892383     0.00300
H1679       H  0.92822806  0.56407124  0.60511656     0.14800
H1680       H  0.89184524  0.49561748  0.63006483     0.14600
C1681       C  0.09294617  0.62653931  0.83122539     0.86400
C1682       C  0.09290681  0.63339329  0.80205063    -0.53800
C1683       C  0.07458854  0.61579821  0.78746168     0.09300
C1684       C  0.05643303  0.59383900  0.80404375     0.20300
C1685       C  0.06863278  0.62148996  0.84122639    -0.54500
C1686       C  0.04964002  0.60432246  0.82713399     0.09400
C1687       C  0.09043903  0.60199314  0.83026747    -0.54100
C1688       C  0.07149977  0.58497900  0.81636521     0.10000
H1689       H  0.10565473  0.65068377  0.79334557     0.14500
H1690       H  0.04088251  0.57970898  0.79282936     0.00300
H1691       H  0.06643606  0.63109120  0.85710262     0.14800
H1692       H  0.10277487  0.59827256  0.84010086     0.14600
C1693       C  0.09042445  0.63139331  0.63206212     0.86400
C1694       C  0.09098591  0.60869586  0.63741277    -0.53800
C1695       C  0.07219386  0.59127993  0.65163868     0.09300
C1696       C  0.05380639  0.59772141  0.65892081     0.20300
C1697       C  0.06604988  0.62214506  0.61865002    -0.54500
C1698       C  0.04703926  0.60454296  0.63271213     0.09400
C1699       C  0.08674267  0.63938604  0.65920067    -0.54100
C1700       C  0.06841965  0.62147663  0.67390732     0.10000
H1701       H  0.10526034  0.60654576  0.63020497     0.14500
H1702       H  0.03825046  0.58332972  0.67016881     0.00300
H1703       H  0.06355023  0.62959670  0.60073471     0.14800
H1704       H  0.09811187  0.65715880  0.66709086     0.14600
C1705       C  0.89866378  0.37880444  0.84419819     0.86400
C1706       C  0.89801890  0.37144523  0.81503000    -0.53800
C1707       C  0.91728552  0.38801057  0.80023528     0.09300
C1708       C  0.93529595  0.41038406  0.81569090     0.20300
C1709       C  0.92281278  0.38367661  0.85415703    -0.54500
C1710       C  0.94189489  0.40064423  0.83969585     0.09400
C1711       C  0.90160723  0.40350700  0.84189939    -0.54100
C1712       C  0.92013807  0.41973994  0.82655470     0.10000
H1713       H  0.88325520  0.35583643  0.80573752     0.14500
H1714       H  0.95080989  0.42411468  0.80386017     0.00300
H1715       H  0.92474432  0.37504715  0.87144152     0.14800
H1716       H  0.88915703  0.40753915  0.85082903     0.14600
C1717       C  0.89986066  0.38611411  0.64245298     0.86400
C1718       C  0.90268795  0.41080363  0.64351430    -0.53800
C1719       C  0.92129888  0.42755573  0.65818870     0.09300
C1720       C  0.93533800  0.41790163  0.67162813     0.20300
C1721       C  0.92463447  0.39121389  0.63381119    -0.54500
C1722       C  0.94311001  0.40796007  0.64898876     0.09400
C1723       C  0.89826141  0.37873019  0.67166865    -0.54100
C1724       C  0.91625949  0.39556324  0.68695396     0.10000
H1725       H  0.89109466  0.41495996  0.63270953     0.14500
H1726       H  0.95047296  0.43141268  0.68383554     0.00300
H1727       H  0.92737762  0.38203635  0.61786723     0.14800
H1728       H  0.88484974  0.36167078  0.68019841     0.14600
C1729       C  0.08549723  0.47561360  0.84640465     0.86400
C1730       C  0.08339575  0.49789430  0.84668405    -0.53800
C1731       C  0.06456714  0.49550906  0.83289804     0.09300
C1732       C  0.04932891  0.47092035  0.81985357     0.20300
C1733       C  0.06104000  0.45478774  0.85609652    -0.54500
C1734       C  0.04227291  0.45235958  0.84211484     0.09400
C1735       C  0.08640947  0.47157434  0.81652818    -0.54100
C1736       C  0.06722547  0.46861277  0.80281661     0.10000
H1737       H  0.09679368  0.51487436  0.85538672     0.14500
H1738       H  0.03387770  0.46885223  0.80864225     0.00300
H1739       H  0.05877362  0.44316796  0.87259733     0.14800
H1740       H  0.10181178  0.47367394  0.80625981     0.14600
C1741       C  0.08798355  0.48013891  0.64480393     0.86400
C1742       C  0.08895505  0.47713061  0.67510870    -0.53800
C1743       C  0.07102391  0.47687556  0.68893642     0.09300
C1744       C  0.05331267  0.47903365  0.67140796     0.20300
C1745       C  0.06272460  0.45921829  0.63733977    -0.54500
C1746       C  0.04472114  0.45880939  0.65118717     0.09400
C1747       C  0.08706657  0.50289698  0.64220720    -0.54100
C1748       C  0.06897038  0.50239289  0.65573088     0.10000
H1749       H  0.10228066  0.47547386  0.68552542     0.14500
H1750       H  0.03838455  0.47805071  0.68257743     0.00300
H1751       H  0.05929113  0.44567806  0.62292338     0.14800
H1752       H  0.10032457  0.51864111  0.63111521     0.14600
O1753       O  0.42955850  0.69744032  0.57866512    -0.57900
C1754       C  0.40065558  0.62676391  0.56746523     0.74700
O1755       O  0.46253214  0.67296855  0.51959880    -0.59000
C1756       C  0.44690153  0.71717981  0.56998754     0.74700
C1757       C  0.48087987  0.66764071  0.59227302     0.77100
Cd1758     Cd  0.44541896  0.67273952  0.56312943     1.37500
O1759       O  0.40597716  0.64262186  0.58476777    -0.57900
O1760       O  0.46339631  0.66701677  0.60359337    -0.56700
C1761       C  0.44689467  0.67430537  0.50659109     0.77100
O1762       O  0.48282657  0.67227760  0.56786888    -0.59100
O1763       O  0.41625123  0.63177312  0.54989557    -0.57500
O1764       O  0.46474754  0.71695158  0.56124071    -0.57500
O1765       O  0.43117957  0.67538752  0.51964702    -0.56700
O1766       O  0.42482542  0.76405507  0.51139017    -0.57900
C1767       C  0.39576617  0.77759573  0.55967175     0.74700
O1768       O  0.46226389  0.75790933  0.55744672    -0.59000
C1769       C  0.44314222  0.78001881  0.49899245     0.74700
C1770       C  0.47161133  0.82078794  0.58585748     0.77100
Cd1771     Cd  0.44019753  0.77880266  0.55535631     1.37500
O1772       O  0.41371386  0.79373778  0.54695190    -0.57900
O1773       O  0.47605181  0.81935375  0.56194374    -0.56700
C1774       C  0.44550743  0.73870905  0.56778167     0.77100
O1775       O  0.45386424  0.80210283  0.59596651    -0.59100
O1776       O  0.39830096  0.76207205  0.57146386    -0.57500
O1777       O  0.46059764  0.79546298  0.51260234    -0.57500
O1778       O  0.42680305  0.73844012  0.57410240    -0.56700
O1779       O  0.43066311  0.67532584  0.96514936    -0.57900
C1780       C  0.40028392  0.62486664  0.91321205     0.74700
O1781       O  0.46404294  0.71568247  0.91862033    -0.59000
C1782       C  0.44645070  0.67403229  0.97778433     0.74700
C1783       C  0.48142714  0.67002636  0.89334242     0.77100
Cd1784     Cd  0.44390966  0.67147103  0.92125297     1.37500
O1785       O  0.41634494  0.62818499  0.92927471    -0.57900
O1786       O  0.47998034  0.66917796  0.91815855    -0.56700
C1787       C  0.44611270  0.71575086  0.90992924     0.77100
O1788       O  0.46604796  0.67264815  0.88149949    -0.59100
O1789       O  0.40460205  0.64281633  0.89940834    -0.57500
O1790       O  0.46143368  0.67201523  0.96436779    -0.57500
O1791       O  0.42768999  0.69553109  0.90480692    -0.56700
O1792       O  0.42754131  0.73789860  0.90120022    -0.57900
C1793       C  0.40053569  0.78155310  0.90643176     0.74700
O1794       O  0.46181878  0.79616618  0.95720249    -0.59000
C1795       C  0.44603268  0.73798106  0.90802383     0.74700
C1796       C  0.47724150  0.82072424  0.88247543     0.77100
Cd1797     Cd  0.44318625  0.78002036  0.91392005     1.37500
O1798       O  0.40371377  0.76721153  0.89314747    -0.57900
O1799       O  0.46069818  0.80145354  0.87223512    -0.56700
C1800       C  0.44374183  0.78043813  0.97022625     0.77100
O1801       O  0.47931090  0.82031203  0.90720592    -0.59100
O1802       O  0.41721132  0.79543809  0.92183106    -0.57500
O1803       O  0.46391326  0.75792087  0.91500013    -0.57500
O1804       O  0.42585497  0.76492541  0.95724930    -0.56700
O1805       O  0.26245497  0.57333127  0.57421605    -0.57900
C1806       C  0.21518657  0.59605342  0.56348494     0.74700
O1807       O  0.20941994  0.53497225  0.51670525    -0.59000
C1808       C  0.26332904  0.55485814  0.57011872     0.74700
C1809       C  0.17670942  0.51968170  0.58677875     0.77100
Cd1810     Cd  0.22000985  0.55506900  0.55958242     1.37500
O1811       O  0.22833470  0.59354213  0.57972833    -0.57900
O1812       O  0.19525985  0.53512053  0.59907029    -0.56700
C1813       C  0.22256984  0.55410034  0.50361907     0.77100
O1814       O  0.17875701  0.51956056  0.56199847    -0.59100
O1815       O  0.20403729  0.57952304  0.54691035    -0.57500
O1816       O  0.24381115  0.53604322  0.56390304    -0.57500
O1817       O  0.23479742  0.57328392  0.51643525    -0.56700
O1818       O  0.36158762  0.59655122  0.58444237    -0.57900
C1819       C  0.28615094  0.55567943  0.56996743     0.74700
O1820       O  0.32396055  0.53909914  0.51652424    -0.59000
C1821       C  0.37735067  0.60396971  0.56639138     0.74700
C1822       C  0.34085004  0.52423291  0.58045117     0.77100
Cd1823     Cd  0.33155486  0.55952103  0.55910063     1.37500
O1824       O  0.30600240  0.57474436  0.57464507    -0.57900
O1825       O  0.33250960  0.53358900  0.59526461    -0.56700
C1826       C  0.32776134  0.55694927  0.50289976     0.77100
O1827       O  0.34343643  0.53035877  0.55651336    -0.59100
O1828       O  0.28713117  0.53782662  0.56292081    -0.57500
O1829       O  0.37193340  0.59094070  0.54628368    -0.57500
O1830       O  0.33222751  0.57549998  0.51526644    -0.56700
O1831       O  0.23551870  0.57373230  0.96209181    -0.57900
C1832       C  0.22021488  0.59800418  0.90947202     0.74700
O1833       O  0.24415325  0.53564270  0.91604267    -0.59000
C1834       C  0.22309336  0.55433830  0.97492864     0.74700
C1835       C  0.17578840  0.51962982  0.89859271     0.77100
Cd1836     Cd  0.22153827  0.55558697  0.91891234     1.37500
O1837       O  0.21048655  0.58418158  0.92905070    -0.57900
O1838       O  0.18002405  0.52347414  0.92285132    -0.56700
C1839       C  0.26357925  0.55395151  0.90831615     0.77100
O1840       O  0.19351450  0.53121352  0.88306538    -0.59100
O1841       O  0.23064031  0.59220424  0.89289464    -0.57500
O1842       O  0.21064382  0.53534908  0.96183720    -0.57500
O1843       O  0.26303616  0.57239891  0.90278732    -0.56700
O1844       O  0.30570171  0.57272536  0.90108167    -0.57900
C1845       C  0.37733512  0.60168557  0.91228439     0.74700
O1846       O  0.32554365  0.53897920  0.96146843    -0.59000
C1847       C  0.28602831  0.55439085  0.90833287     0.74700
C1848       C  0.33362224  0.52162997  0.88882609     0.77100
Cd1849     Cd  0.33079961  0.55784559  0.91781711     1.37500
O1850       O  0.36001385  0.59815851  0.89800630    -0.57900
O1851       O  0.33173977  0.53769384  0.87733206    -0.56700
C1852       C  0.32784985  0.55658792  0.97414325     0.77100
O1853       O  0.33354946  0.52211466  0.91370269    -0.59100
O1854       O  0.37354682  0.58456066  0.92719736    -0.57500
O1855       O  0.28690951  0.53707145  0.91773967    -0.57500
O1856       O  0.33099796  0.57432059  0.96082303    -0.56700
O1857       O  0.35438856  0.76027355  0.57131243    -0.57900
C1858       C  0.28171985  0.72986920  0.56240713     0.74700
O1859       O  0.32779307  0.81022409  0.55874086    -0.59000
C1860       C  0.37294626  0.77655207  0.55940118     0.74700
C1861       C  0.32736326  0.77321879  0.49679295     0.77100
Cd1862     Cd  0.32749096  0.77267982  0.55291601     1.37500
O1863       O  0.30082463  0.73119031  0.56919847    -0.57900
O1864       O  0.32752374  0.75680794  0.50961245    -0.56700
C1865       C  0.33171881  0.81150775  0.58322238     0.77100
O1866       O  0.32667697  0.78912934  0.50989334    -0.59100
O1867       O  0.28368295  0.74880041  0.55353695    -0.57500
O1868       O  0.37072127  0.79154151  0.54609884    -0.57500
O1869       O  0.33231172  0.79421400  0.59340653    -0.56700
O1870       O  0.25682708  0.68757901  0.56873536    -0.57900
C1871       C  0.21384640  0.61760094  0.56214930     0.74700
O1872       O  0.17876914  0.66239283  0.55007485    -0.59000
C1873       C  0.25870118  0.70707364  0.56220443     0.74700
C1874       C  0.21837299  0.66416117  0.49579709     0.77100
Cd1875     Cd  0.21576582  0.66192360  0.55188909     1.37500
O1876       O  0.22588985  0.63549017  0.57696444    -0.57900
O1877       O  0.23686571  0.67131649  0.50962876    -0.56700
C1878       C  0.17602589  0.66229333  0.57467409     0.77100
O1879       O  0.19870749  0.65595574  0.50786764    -0.59100
O1880       O  0.20144397  0.61962989  0.54463282    -0.57500
O1881       O  0.24018056  0.70574252  0.55320342    -0.57500
O1882       O  0.19187164  0.66215933  0.58866530    -0.56700
O1883       O  0.36082183  0.76766306  0.89082141    -0.57900
C1884       C  0.28727771  0.73336075  0.90175851     0.74700
O1885       O  0.32848503  0.79055396  0.95533911    -0.59000
C1886       C  0.37812159  0.78130289  0.90577069     0.74700
C1887       C  0.33404598  0.81795356  0.88887534     0.77100
Cd1888     Cd  0.33227449  0.77690312  0.91208795     1.37500
O1889       O  0.30666989  0.73590150  0.89371599    -0.57900
O1890       O  0.33216089  0.80138060  0.87442338    -0.56700
C1891       C  0.32845826  0.77404155  0.96813619     0.77100
O1892       O  0.33513642  0.81523788  0.91334925    -0.59100
O1893       O  0.28863736  0.75142315  0.91211557    -0.57500
O1894       O  0.37476776  0.79400838  0.92154903    -0.57500
O1895       O  0.32987448  0.75856343  0.95503781    -0.56700
O1896       O  0.26312970  0.69105262  0.89465902    -0.57900
C1897       C  0.21986346  0.62001555  0.90754782     0.74700
O1898       O  0.20099335  0.65746530  0.95336534    -0.59000
C1899       C  0.26454680  0.71019894  0.90158431     0.74700
C1900       C  0.18176340  0.66172821  0.88434119     0.77100
Cd1901     Cd  0.22148783  0.66448733  0.91110583     1.37500
O1902       O  0.23126048  0.63610753  0.89014390    -0.57900
O1903       O  0.19659587  0.65857153  0.87205390    -0.56700
C1904       C  0.21959014  0.66496929  0.96714288     0.77100
O1905       O  0.18579389  0.66670362  0.90848196    -0.59100
O1906       O  0.20857770  0.62411064  0.92459184    -0.57500
O1907       O  0.24570314  0.70821590  0.91059374    -0.57500
O1908       O  0.23920483  0.67285042  0.95501619    -0.56700
O1909       O  0.55749944  0.30500824  0.58163124    -0.57900
C1910       C  0.58961330  0.37763058  0.56589546     0.74700
O1911       O  0.52629888  0.32673645  0.51747075    -0.59000
C1912       C  0.54122711  0.28595083  0.57086566     0.74700
C1913       C  0.50907538  0.33539811  0.58833758     0.77100
Cd1914     Cd  0.54529249  0.33138542  0.56062232     1.37500
O1915       O  0.58683746  0.35940278  0.57795269    -0.57900
O1916       O  0.52584574  0.33532238  0.60042168    -0.56700
C1917       C  0.54456664  0.33161050  0.50407430     0.77100
O1918       O  0.50869173  0.33259412  0.56374290    -0.59100
O1919       O  0.57175788  0.37469165  0.55328326    -0.57500
O1920       O  0.52607283  0.28759401  0.55739917    -0.57500
O1921       O  0.56280867  0.33554588  0.51671775    -0.56700
O1922       O  0.56321140  0.23905574  0.01809562    -0.57900
C1923       C  0.58976504  0.22459816  0.56777246     0.74700
O1924       O  0.52531220  0.24527065  0.55920129    -0.59000
C1925       C  0.54432367  0.22550866  0.00525492     0.74700
C1926       C  0.51036749  0.17828411  0.58690586     0.77100
Cd1927     Cd  0.54543548  0.22290872  0.56151253     1.37500
O1928       O  0.57249027  0.20897577  0.55421256    -0.57900
O1929       O  0.51360816  0.18045836  0.56227013    -0.56700
C1930       C  0.54108772  0.26356324  0.57146095     0.77100
O1931       O  0.52275978  0.19728104  0.60013579    -0.59100
O1932       O  0.58644566  0.23924819  0.58016065    -0.57500
O1933       O  0.52583605  0.21080816  0.51837053    -0.57500
O1934       O  0.55770403  0.26217993  0.58200614    -0.56700
O1935       O  0.57606044  0.37939083  0.92800932    -0.57900
C1936       C  0.54484871  0.33317488  0.97530972     0.74700
O1937       O  0.52263799  0.33828837  0.88118847    -0.59000
C1938       C  0.59086368  0.38286623  0.91002452     0.74700
C1939       C  0.54253985  0.29249408  0.90921504     0.77100
Cd1940     Cd  0.54629907  0.33760634  0.91889977     1.37500
O1941       O  0.56367129  0.33959334  0.96220228    -0.57900
O1942       O  0.56094237  0.31222407  0.90224537    -0.56700
C1943       C  0.51107731  0.34520033  0.89434225     0.77100
O1944       O  0.52501490  0.29337080  0.91778916    -0.59100
O1945       O  0.52650432  0.32863259  0.96242580    -0.57500
O1946       O  0.58488794  0.36552949  0.89456669    -0.57500
O1947       O  0.51526348  0.34766450  0.91877630    -0.56700
O1948       O  0.56922333  0.21053558  0.92600693    -0.57900
C1949       C  0.54403694  0.22661080  0.97652896     0.74700
O1950       O  0.52477992  0.25100890  0.91952020    -0.59000
C1951       C  0.58672905  0.22543780  0.91180304     0.74700
C1952       C  0.50854316  0.18665996  0.89132177     0.77100
Cd1953     Cd  0.54444342  0.22783709  0.92008966     1.37500
O1954       O  0.56231952  0.24196460  0.96360639    -0.57900
O1955       O  0.50590952  0.18869379  0.91562112    -0.56700
C1956       C  0.54230297  0.27005543  0.90987606     0.77100
O1957       O  0.52670501  0.20447770  0.88050831    -0.59100
O1958       O  0.52566086  0.21210104  0.96345215    -0.57500
O1959       O  0.58454528  0.24117547  0.89997658    -0.57500
O1960       O  0.56028575  0.26922994  0.90299050    -0.56700
O1961       O  0.76026260  0.37021645  0.57994350    -0.57900
C1962       C  0.72688657  0.29651159  0.56962285     0.74700
O1963       O  0.78217105  0.33553039  0.51562573    -0.59000
C1964       C  0.77309993  0.38727988  0.56401750     0.74700
C1965       C  0.81171428  0.34809511  0.58542701     0.77100
Cd1966     Cd  0.77001207  0.34207729  0.55898802     1.37500
O1967       O  0.72860908  0.31587954  0.57620651    -0.57900
O1968       O  0.79285854  0.34261067  0.59807028    -0.56700
C1969       C  0.76682348  0.33751971  0.50289110     0.77100
O1970       O  0.81097365  0.35046193  0.56078027    -0.59100
O1971       O  0.74565715  0.29813147  0.56090280    -0.57500
O1972       O  0.78535162  0.38387789  0.54754787    -0.57500
O1973       O  0.75269539  0.34098690  0.51608761    -0.56700
O1974       O  0.68452295  0.27182517  0.57621783    -0.57900
C1975       C  0.61274602  0.22608979  0.56737626     0.74700
O1976       O  0.65653780  0.21282293  0.51610207    -0.59000
C1977       C  0.70384896  0.27355680  0.56943819     0.74700
C1978       C  0.65372565  0.19049018  0.58914709     0.77100
Cd1979     Cd  0.65814388  0.23035413  0.55954183     1.37500
O1980       O  0.63123851  0.24246195  0.57895503    -0.57900
O1981       O  0.65108219  0.20633744  0.59970689    -0.56700
C1982       C  0.65729192  0.22948277  0.50273630     0.77100
O1983       O  0.65990038  0.19403002  0.56516145    -0.59100
O1984       O  0.61517647  0.21144538  0.55389924    -0.57500
O1985       O  0.70213314  0.25491652  0.56023436    -0.57500
O1986       O  0.65890845  0.24671689  0.51547635    -0.56700
O1987       O  0.72731809  0.31151248  0.89617370    -0.57900
C1988       C  0.77012641  0.38403234  0.90968338     0.74700
O1989       O  0.78056448  0.33402644  0.96087556    -0.59000
C1990       C  0.72329543  0.29320476  0.90908401     0.74700
C1991       C  0.80829160  0.34158524  0.89512465     0.77100
Cd1992     Cd  0.76670156  0.33863074  0.91786596     1.37500
O1993       O  0.75642290  0.36627184  0.89530956    -0.57900
O1994       O  0.79006635  0.33518176  0.88097223    -0.56700
C1995       C  0.76595644  0.33672901  0.97416548     0.77100
O1996       O  0.80666005  0.34612989  0.91884208    -0.59100
O1997       O  0.78277682  0.38106825  0.92596339    -0.57500
O1998       O  0.73978541  0.29575673  0.92398572    -0.57500
O1999       O  0.75105136  0.33945485  0.96146365    -0.56700
O2000       O  0.62737132  0.24052537  0.89815558    -0.57900
C2001       C  0.70016339  0.27045253  0.90891768     0.74700
O2002       O  0.65396352  0.21130305  0.96112600    -0.59000
C2003       C  0.60890373  0.22514368  0.91089406     0.74700
C2004       C  0.65407238  0.18857057  0.89073446     0.77100
Cd2005     Cd  0.65401833  0.22760289  0.91725111     1.37500
O2006       O  0.68227836  0.26741093  0.89613441    -0.57900
O2007       O  0.65659827  0.20624812  0.87770117    -0.56700
C2008       C  0.65618547  0.22881170  0.97390485     0.77100
O2009       O  0.65148338  0.18927369  0.91531097    -0.59100
O2010       O  0.69683966  0.25330074  0.92343422    -0.57500
O2011       O  0.61083529  0.21007770  0.92436474    -0.57500
O2012       O  0.65728163  0.24568124  0.96060736    -0.56700
O2013       O  0.78546388  0.42561337  0.54624556    -0.57900
C2014       C  0.76988970  0.45317552  0.49919017     0.74700
O2015       O  0.74599870  0.46991744  0.55866850    -0.59000
C2016       C  0.77298001  0.40949656  0.56315022     0.74700
C2017       C  0.81191592  0.48755878  0.58384274     0.77100
Cd2018     Cd  0.77018378  0.45145327  0.55562163     1.37500
O2019       O  0.75562481  0.43443407  0.51219673    -0.57900
O2020       O  0.81050302  0.48802968  0.55905565    -0.56700
C2021       C  0.72669087  0.45095880  0.56542863     0.77100
O2022       O  0.79331473  0.47115376  0.59560874    -0.59100
O2023       O  0.78426030  0.47168726  0.51221325    -0.57500
O2024       O  0.75968532  0.41304891  0.57793675    -0.57500
O2025       O  0.72786432  0.43272955  0.57005842    -0.56700
O2026       O  0.65712293  0.42954624  0.51194040    -0.57900
C2027       C  0.61262137  0.40079643  0.56480969     0.74700
O2028       O  0.70247078  0.46731635  0.55807910    -0.59000
C2029       C  0.66168952  0.44818637  0.49944570     0.74700
C2030       C  0.65348383  0.48121235  0.58345420     0.77100
Cd2031     Cd  0.65833476  0.44529084  0.55611987     1.37500
O2032       O  0.61529048  0.41732720  0.54964253    -0.57900
O2033       O  0.64928203  0.47675818  0.55919649    -0.56700
C2034       C  0.70376185  0.44967510  0.56546603     0.77100
O2035       O  0.66054224  0.46915998  0.59545887    -0.59100
O2036       O  0.63092671  0.40498482  0.57759819    -0.57500
O2037       O  0.66515792  0.46577981  0.51303519    -0.57500
O2038       O  0.68414961  0.43043269  0.57081196    -0.56700
O2039       O  0.75570258  0.43400875  0.95799712    -0.57900
C2040       C  0.77078325  0.40669663  0.90912283     0.74700
O2041       O  0.74741506  0.46992606  0.91427836    -0.59000
C2042       C  0.76994326  0.45294692  0.97041302     0.74700
C2043       C  0.81453413  0.48590850  0.88748843     0.77100
Cd2044     Cd  0.77069099  0.45045880  0.91415313     1.37500
O2045       O  0.78324399  0.42282440  0.92568153    -0.57900
O2046       O  0.81262918  0.48352244  0.91223358    -0.56700
C2047       C  0.72846499  0.45255702  0.90460447     0.77100
O2048       O  0.79554809  0.47253871  0.87460692    -0.59100
O2049       O  0.75848014  0.41085052  0.89338724    -0.57500
O2050       O  0.78439653  0.47126040  0.95683034    -0.57500
O2051       O  0.72951113  0.43489495  0.89688483    -0.56700
O2052       O  0.68639944  0.43444160  0.89663953    -0.57900
C2053       C  0.61417597  0.40564838  0.90879921     0.74700
O2054       O  0.66579540  0.46720024  0.95786614    -0.59000
C2055       C  0.70597757  0.45224224  0.90465861     0.74700
C2056       C  0.65729405  0.48665201  0.88813269     0.77100
Cd2057     Cd  0.66094675  0.44913952  0.91403701     1.37500
O2058       O  0.63069458  0.40983435  0.89265081    -0.57900
O2059       O  0.65926344  0.47157022  0.87478218    -0.56700
C2060       C  0.66233637  0.44903332  0.97061756     0.77100
O2061       O  0.65782390  0.48465314  0.91285303    -0.59100
O2062       O  0.61900651  0.42182786  0.92534302    -0.57500
O2063       O  0.70495077  0.46918007  0.91471487    -0.57500
O2064       O  0.65893657  0.43132898  0.95728835    -0.56700
C2065       C  0.51613158  0.91283673  0.83063933     0.86400
C2066       C  0.52184884  0.91690690  0.80102768    -0.53800
C2067       C  0.52385870  0.93719542  0.79112256     0.09300
C2068       C  0.52118595  0.95246889  0.81202029     0.20300
C2069       C  0.53703740  0.93600663  0.84333101    -0.54500
C2070       C  0.53946601  0.95663517  0.83353055     0.09400
C2071       C  0.49432910  0.91502968  0.83477374    -0.54100
C2072       C  0.49680097  0.93551190  0.82519384     0.10000
H2073       H  0.52238573  0.90385571  0.78852914     0.14500
H2074       H  0.52319699  0.96918003  0.80396682     0.00300
H2075       H  0.54886002  0.93670027  0.85854116     0.14800
H2076       H  0.47782364  0.90102547  0.84407396     0.14600
C2077       C  0.51398854  0.91421193  0.63666274     0.86400
C2078       C  0.49671272  0.92241434  0.62988313    -0.53800
C2079       C  0.50202691  0.94337171  0.64129140     0.09300
C2080       C  0.52487393  0.95499723  0.65777724     0.20300
C2081       C  0.53870113  0.93592350  0.62760345    -0.54500
C2082       C  0.54409504  0.95718675  0.63870545     0.09400
C2083       C  0.51570750  0.91476352  0.66690924    -0.54100
C2084       C  0.52073281  0.93574049  0.67792469     0.10000
H2085       H  0.48072717  0.91173818  0.61812178     0.14500
H2086       H  0.52935561  0.97223847  0.66682626     0.00300
H2087       H  0.55054033  0.93534136  0.61326348     0.14800
H2088       H  0.51302564  0.89974527  0.67876711     0.14600
C2089       C  0.62259464  0.09988553  0.83931359     0.86400
C2090       C  0.59831815  0.09763438  0.83964334    -0.53800
C2091       C  0.58044673  0.07821357  0.82729987     0.09300
C2092       C  0.58825724  0.06204942  0.81556666     0.20300
C2093       C  0.61800116  0.07577295  0.85031443    -0.60500
C2094       C  0.59957022  0.05622482  0.83818964     0.09400
C2095       C  0.62724224  0.09862470  0.80952010    -0.54100
C2096       C  0.60971062  0.07814952  0.79701107     0.10000
H2097       H  0.59545832  0.11074167  0.84900636     0.14500
H2098       H  0.57281178  0.04556818  0.80748822     0.00300
H2099       H  0.62827315  0.07405421  0.86577968     0.14800
H2100       H  0.64268672  0.11270489  0.79926244     0.14600
C2101       C  0.61345512  0.09826764  0.64266770     0.86400
C2102       C  0.61795453  0.09613399  0.67192236    -0.53800
C2103       C  0.60206900  0.07453266  0.68392267     0.09300
C2104       C  0.58307640  0.05668448  0.66422787     0.20300
C2105       C  0.61366906  0.07688331  0.62998462    -0.54500
C2106       C  0.59785099  0.05525466  0.64179923     0.09400
C2107       C  0.58729364  0.09090144  0.64097987    -0.54100
C2108       C  0.57142027  0.06939298  0.65206390     0.10000
H2109       H  0.63308924  0.11078850  0.68191053     0.14500
H2110       H  0.56963921  0.03864327  0.67127720     0.00300
H2111       H  0.62500178  0.07815490  0.61378913     0.14800
H2112       H  0.58170243  0.10216045  0.63196964     0.14600
C2113       C  0.36562422  0.90839445  0.84011816     0.86400
C2114       C  0.39010239  0.91082864  0.83771348    -0.53800
C2115       C  0.40716084  0.93023715  0.82382785     0.09300
C2116       C  0.39793058  0.94539049  0.81248620     0.20300
C2117       C  0.37133461  0.93284783  0.85088406    -0.54500
C2118       C  0.38852473  0.95204638  0.83650428     0.09400
C2119       C  0.35844706  0.90883516  0.81130333    -0.54100
C2120       C  0.37549533  0.92779621  0.79679230     0.10000
H2121       H  0.39388016  0.89833268  0.84715077     0.14500
H2122       H  0.41150912  0.96135976  0.80118753     0.00300
H2123       H  0.36338138  0.93506722  0.86843886     0.14800
H2124       H  0.34229095  0.89502021  0.80186115     0.14600
C2125       C  0.37146945  0.90106799  0.64081938     0.86400
C2126       C  0.36571674  0.89940521  0.67033990    -0.53800
C2127       C  0.38050989  0.91975275  0.68407869     0.09300
C2128       C  0.39866412  0.94084787  0.66656560     0.20300
C2129       C  0.36949879  0.92232550  0.63090756    -0.54500
C2130       C  0.38376783  0.94306654  0.64474848     0.09400
C2131       C  0.39838878  0.91121572  0.63853696    -0.54100
C2132       C  0.41263765  0.93180998  0.65199456     0.10000
H2133       H  0.35092828  0.88332783  0.67936325     0.14500
H2134       H  0.41029779  0.95786712  0.67723825     0.00300
H2135       H  0.35972145  0.92205462  0.61364998     0.14800
H2136       H  0.40565609  0.90273087  0.62682918     0.14600
C2137       C  0.47041199  0.09676071  0.83737697     0.86400
C2138       C  0.46386637  0.09311607  0.80804772    -0.53800
C2139       C  0.46418833  0.07455030  0.79687358     0.09300
C2140       C  0.46920083  0.05989616  0.81632914     0.20300
C2141       C  0.45123058  0.07215162  0.84983548    -0.54500
C2142       C  0.45084155  0.05294425  0.83870058     0.09400
C2143       C  0.49386264  0.09718895  0.83963548    -0.54100
C2144       C  0.49319211  0.07798966  0.82895392     0.10000
H2145       H  0.45923401  0.10411735  0.79684257     0.14500
H2146       H  0.46880517  0.04445671  0.80702136     0.00300
H2147       H  0.43863547  0.06962050  0.86517343     0.14800
H2148       H  0.50983201  0.11163399  0.84903325     0.14600
C2149       C  0.46349643  0.08611483  0.64035545     0.86400
C2150       C  0.48547860  0.08372247  0.64062718    -0.53800
C2151       C  0.48251582  0.06436284  0.65402912     0.09300
C2152       C  0.45757979  0.04893392  0.66676457     0.20300
C2153       C  0.44261939  0.06189000  0.63039415    -0.54500
C2154       C  0.43970979  0.04254719  0.64401049     0.09400
C2155       C  0.45769255  0.08580934  0.66994689    -0.54100
C2156       C  0.45478646  0.06657527  0.68380159     0.10000
H2157       H  0.50230768  0.09655914  0.63094356     0.14500
H2158       H  0.45520914  0.03310586  0.67753914     0.00300
H2159       H  0.43093747  0.06007932  0.61435645     0.14800
H2160       H  0.45748314  0.09998124  0.68032001     0.14600
C2161       C  0.44287646  0.05058934  0.75716628    -0.20400
C2162       C  0.46263545  0.07114234  0.76804194    -0.06900
C2163       C  0.47979914  0.08934177  0.75115632     0.13900
C2164       C  0.47552323  0.08784959  0.72419866    -0.20400
C2165       C  0.45616018  0.06724709  0.71300208    -0.06900
C2166       C  0.43961531  0.04826365  0.72963433     0.13900
C2167       C  0.41783067  0.02639538  0.71866126    -0.23800
H2168       H  0.42976453  0.03664971  0.77023881     0.15200
H2169       H  0.48847725  0.10235349  0.71152961     0.15200
C2170       C  0.50353742  0.10987929  0.76055892    -0.23700
H2171       H  0.40619735  0.01416512  0.73464799     0.05400
H2172       H  0.42306386  0.01629362  0.70594833     0.08700
H2173       H  0.40724396  0.03189552  0.70711156     0.08700
H2174       H  0.50672021  0.10795683  0.78152088     0.08700
H2175       H  0.50460339  0.12707754  0.75722368     0.08700
H2176       H  0.51821149  0.11028329  0.74928880     0.05400
C2177       C  0.41102635  0.97918219  0.61925979    -0.20400
C2178       C  0.39083051  0.96731427  0.63571287    -0.06900
C2179       C  0.38385476  0.98084049  0.65015592     0.13900
C2180       C  0.39939098  0.00590101  0.65125844    -0.20400
C2181       C  0.42125364  0.01744996  0.63751379    -0.06900
C2182       C  0.42628485  0.00419647  0.61988872     0.13900
C2183       C  0.44856171  0.01620222  0.60314734    -0.23800
H2184       H  0.41622229  0.96870901  0.60799554     0.15200
H2185       H  0.39492017  0.01634832  0.66357664     0.15200
C2186       C  0.36012898  0.96871011  0.66436103    -0.23700
H2187       H  0.44945838  0.00328007  0.58997376     0.05400
H2188       H  0.46435823  0.02419708  0.61616401     0.08700
H2189       H  0.44906422  0.03039060  0.59073215     0.08700
H2190       H  0.35842579  0.95490376  0.67829094     0.08700
H2191       H  0.34549490  0.95974519  0.64972827     0.08700
H2192       H  0.35772449  0.98176226  0.67549657     0.05400
C2193       C  0.40904675  0.01750552  0.83978798    -0.20400
C2194       C  0.43337923  0.02738784  0.84548828    -0.06900
C2195       C  0.44109366  0.01199905  0.85363985     0.13900
C2196       C  0.42491567  0.98716526  0.85344220    -0.20400
C2197       C  0.40128849  0.97725860  0.84516518    -0.06900
C2198       C  0.39284956  0.99246728  0.83954189     0.13900
C2199       C  0.36711384  0.98224886  0.83226407    -0.23800
H2200       H  0.40306496  0.02929818  0.83380942     0.15200
H2201       H  0.43117413  0.97531248  0.85802687     0.15200
C2202       C  0.46638545  0.02145518  0.86222453    -0.23700
H2203       H  0.36349416  0.99658718  0.82800471     0.05400
H2204       H  0.35534579  0.97108248  0.84883832     0.08700
H2205       H  0.36254414  0.97089794  0.81456370     0.08700
H2206       H  0.47088429  0.03416260  0.87865951     0.08700
H2207       H  0.47892522  0.03036855  0.84554861     0.08700
H2208       H  0.46877820  0.00688821  0.86936887     0.05400
C2209       C  0.37571894  0.90626452  0.75769143    -0.20400
C2210       C  0.37584890  0.92600714  0.76788972    -0.06900
C2211       C  0.37741682  0.94360841  0.75072122     0.13900
C2212       C  0.37947816  0.94133484  0.72353023    -0.20400
C2213       C  0.37904122  0.92137788  0.71312729    -0.06900
C2214       C  0.37773568  0.90384308  0.73067797     0.13900
C2215       C  0.38017430  0.88342580  0.72185181    -0.23800
H2216       H  0.37501070  0.89307803  0.77121826     0.15200
H2217       H  0.38130048  0.95518891  0.71040538     0.15200
C2218       C  0.37567445  0.96401043  0.76089839    -0.23700
H2219       H  0.38140370  0.87340283  0.73881789     0.05400
H2220       H  0.39683795  0.89049328  0.71016805     0.08700
H2221       H  0.36434555  0.87025199  0.71045252     0.08700
H2222       H  0.39087270  0.97543995  0.77420058     0.08700
H2223       H  0.35850356  0.95665323  0.77172331     0.08700
H2224       H  0.37579649  0.97534089  0.74456810     0.05400
C2225       C  0.53584939  0.06153104  0.67724475    -0.20400
C2226       C  0.54564767  0.06082433  0.65306568    -0.06900
C2227       C  0.53260701  0.05736196  0.62972263     0.13900
C2228       C  0.51134926  0.05731622  0.63087692    -0.20400
C2229       C  0.50210779  0.05943296  0.65495659    -0.06900
C2230       C  0.51400584  0.06039626  0.67856322     0.13900
C2231       C  0.50553324  0.06312470  0.70494746    -0.23800
H2232       H  0.54641792  0.06539639  0.69492643     0.15200
H2233       H  0.50253721  0.05682717  0.61267710     0.15200
C2234       C  0.54136552  0.05425218  0.60350560    -0.23700
H2235       H  0.51664037  0.06296168  0.72126366     0.05400
H2236       H  0.48682302  0.04825044  0.70865536     0.08700
H2237       H  0.50716049  0.08068039  0.70519304     0.08700
H2238       H  0.54320876  0.03848359  0.60459029     0.08700
H2239       H  0.55890338  0.07043529  0.59821214     0.08700
H2240       H  0.52862841  0.05110817  0.58741661     0.05400
C2241       C  0.52276553  0.07290359  0.80505121    -0.20400
C2242       C  0.51400227  0.07526359  0.82924571    -0.06900
C2243       C  0.52565478  0.07573625  0.85284935     0.13900
C2244       C  0.54630230  0.07480744  0.85141151    -0.20400
C2245       C  0.55588502  0.07372458  0.82713585    -0.06900
C2246       C  0.54372908  0.07238542  0.80364321     0.13900
C2247       C  0.55301312  0.07126088  0.77701596    -0.23800
H2248       H  0.51359991  0.07230347  0.78707090     0.15200
H2249       H  0.55553839  0.07574651  0.86948143     0.15200
C2250       C  0.51702499  0.07714180  0.87993484    -0.23700
H2251       H  0.54266937  0.07291526  0.76082030     0.05400
H2252       H  0.55099495  0.05360177  0.77501847     0.08700
H2253       H  0.57203185  0.08601209  0.77461998     0.08700
H2254       H  0.49988602  0.07641138  0.87980057     0.08700
H2255       H  0.53076161  0.09409632  0.88949580     0.08700
H2256       H  0.51426162  0.06180828  0.89214644     0.05400
C2257       C  0.58952538  0.05365769  0.75654264    -0.20400
C2258       C  0.61038235  0.07232401  0.76834099    -0.06900
C2259       C  0.63070776  0.08516332  0.75176777     0.13900
C2260       C  0.62746306  0.08454222  0.72441085    -0.20400
C2261       C  0.60472775  0.07001294  0.71268670    -0.06900
C2262       C  0.58618231  0.05215916  0.72916889     0.13900
C2263       C  0.56301783  0.03092614  0.71937418    -0.23800
H2264       H  0.57532961  0.03990226  0.76840678     0.15200
H2265       H  0.64325145  0.09501459  0.71223251     0.15200
C2266       C  0.65607163  0.09710333  0.76155579    -0.23700
H2267       H  0.55128233  0.01919199  0.73568321     0.05400
H2268       H  0.56683470  0.01943755  0.70709587     0.08700
H2269       H  0.55246926  0.03684597  0.70872629     0.08700
H2270       H  0.65693628  0.09163318  0.78203058     0.08700
H2271       H  0.66512421  0.11689663  0.75989792     0.08700
H2272       H  0.66612635  0.09134746  0.74937141     0.05400
C2273       C  0.47646187  0.95222635  0.66795376    -0.20400
C2274       C  0.48404451  0.95024030  0.64276761    -0.06900
C2275       C  0.47075983  0.94941105  0.62053854     0.13900
C2276       C  0.44861205  0.94698199  0.62437020    -0.20400
C2277       C  0.43901059  0.94433546  0.64976593    -0.06900
C2278       C  0.45373323  0.94871293  0.67183992     0.13900
C2279       C  0.44502511  0.94765436  0.69951554    -0.23800
H2280       H  0.48710469  0.95380823  0.68494953     0.15200
H2281       H  0.43767153  0.94464936  0.60733333     0.15200
C2282       C  0.47865475  0.94968718  0.59261714    -0.23700
H2283       H  0.45879031  0.95054268  0.71410906     0.05400
H2284       H  0.42872933  0.92987567  0.70351047     0.08700
H2285       H  0.44112655  0.96192273  0.70240955     0.08700
H2286       H  0.46521680  0.93284626  0.58263188     0.08700
H2287       H  0.49615054  0.95127477  0.59153003     0.08700
H2288       H  0.48023611  0.96517746  0.58179882     0.05400
C2289       C  0.58300400  0.99250105  0.65080206    -0.20400
C2290       C  0.56505212  0.98112529  0.63183539    -0.06900
C2291       C  0.56372762  0.99503409  0.61134459     0.13900
C2292       C  0.57784599  0.02016251  0.61267598    -0.20400
C2293       C  0.59323918  0.03153485  0.63392418    -0.06900
C2294       C  0.59732228  0.01762082  0.65192997     0.13900
C2295       C  0.61584715  0.02917148  0.67322400    -0.23800
H2296       H  0.58430377  0.98180029  0.66623484     0.15200
H2297       H  0.57507004  0.03081037  0.59848270     0.15200
C2298       C  0.54636033  0.98401973  0.58895859    -0.23700
H2299       H  0.61760789  0.01571070  0.68455900     0.05400
H2300       H  0.61082471  0.03845865  0.68729685     0.08700
H2301       H  0.63353635  0.04224899  0.66427259     0.08700
H2302       H  0.55627265  0.99025627  0.56994576     0.08700
H2303       H  0.53660876  0.96418625  0.58924116     0.08700
H2304       H  0.53329249  0.98973168  0.58989484     0.05400
C2305       C  0.46886011  0.94383184  0.80236225    -0.20400
C2306       C  0.47674328  0.93952674  0.82614751    -0.06900
C2307       C  0.46347908  0.93605408  0.84952824     0.13900
C2308       C  0.44189727  0.93517422  0.84802250    -0.20400
C2309       C  0.43258901  0.93686243  0.82382430    -0.06900
C2310       C  0.44676863  0.94225258  0.80076106     0.13900
C2311       C  0.43824920  0.94446517  0.77409167    -0.23800
H2312       H  0.47919944  0.94668852  0.78456255     0.15200
H2313       H  0.43161854  0.93201027  0.86597130     0.15200
C2314       C  0.47107488  0.93278042  0.87644464    -0.23700
H2315       H  0.45127097  0.94729297  0.75847255     0.05400
H2316       H  0.43614408  0.96003057  0.77327587     0.08700
H2317       H  0.42119605  0.92769219  0.76954018     0.08700
H2318       H  0.48847450  0.93408481  0.87637712     0.08700
H2319       H  0.45733965  0.91489917  0.88456143     0.08700
H2320       H  0.47272733  0.94684959  0.88985390     0.05400
C2321       C  0.58117848  0.99200123  0.83211168    -0.20400
C2322       C  0.55786863  0.98108084  0.84239712    -0.06900
C2323       C  0.55149632  0.99490977  0.85733345     0.13900
C2324       C  0.56753981  0.01970748  0.85911348    -0.20400
C2325       C  0.58950748  0.03101309  0.84580335    -0.06900
C2326       C  0.59695284  0.01703912  0.83312421     0.13900
C2327       C  0.62076267  0.02872172  0.81912885    -0.23800
H2328       H  0.58632003  0.98123647  0.82139281     0.15200
H2329       H  0.56192597  0.03063046  0.86868352     0.15200
C2330       C  0.52747023  0.98383678  0.87054062    -0.23700
H2331       H  0.62387449  0.01521693  0.81027840     0.05400
H2332       H  0.63535658  0.03953994  0.83334237     0.08700
H2333       H  0.62148548  0.04061126  0.80306225     0.08700
H2334       H  0.52493238  0.96945119  0.88421849     0.08700
H2335       H  0.51324754  0.97652840  0.85548492     0.08700
H2336       H  0.52584098  0.99714625  0.88217715     0.05400
C2337       C  0.50123071  0.92533269  0.74969399    -0.20400
C2338       C  0.52305895  0.94050389  0.76233317    -0.06900
C2339       C  0.54356434  0.95625705  0.74705847     0.13900
C2340       C  0.54204151  0.95514852  0.71940638    -0.20400
C2341       C  0.52053462  0.93874611  0.70682241    -0.06900
C2342       C  0.49958301  0.92447298  0.72218536     0.13900
C2343       C  0.47516972  0.90827688  0.71039635    -0.23800
H2344       H  0.48537063  0.91364717  0.76144720     0.15200
H2345       H  0.55796672  0.96651306  0.70763257     0.15200
C2346       C  0.56736671  0.97380686  0.75919869    -0.23700
H2347       H  0.46836921  0.88935511  0.71591847     0.05400
H2348       H  0.47517579  0.90977017  0.68867783     0.08700
H2349       H  0.46259935  0.91316878  0.71819366     0.08700
H2350       H  0.58087894  0.96965273  0.75286268     0.08700
H2351       H  0.56653150  0.97329851  0.78094858     0.08700
H2352       H  0.57327922  0.99229610  0.75264937     0.05400
C2353       C  0.64249015  0.14621552  0.89355816    -0.20400
C2354       C  0.65266438  0.16731989  0.87846674    -0.06900
C2355       C  0.65980666  0.16687916  0.85230084     0.13900
C2356       C  0.65360406  0.14479203  0.84103614    -0.20400
C2357       C  0.63981988  0.12279377  0.85491175    -0.06900
C2358       C  0.63581983  0.12409301  0.88240026     0.13900
C2359       C  0.62286825  0.10230170  0.90023908    -0.23800
H2360       H  0.63808187  0.14664565  0.91405520     0.15200
H2361       H  0.65780099  0.14499681  0.82048626     0.15200
C2362       C  0.67341622  0.18940600  0.83579426    -0.23700
H2363       H  0.62041259  0.10698198  0.92049969     0.05400
H2364       H  0.63357097  0.09394062  0.90231237     0.08700
H2365       H  0.60468958  0.08926953  0.89269663     0.08700
H2366       H  0.68992799  0.20287834  0.84624132     0.08700
H2367       H  0.66206130  0.19683766  0.83181879     0.08700
H2368       H  0.67885841  0.18595547  0.81643246     0.05400
C2369       C  0.63895167  0.16537554  0.62943527    -0.20400
C2370       C  0.64832090  0.16846983  0.60393551    -0.06900
C2371       C  0.65012153  0.14974159  0.59289878     0.13900
C2372       C  0.64085235  0.12797096  0.60689799    -0.20400
C2373       C  0.62925237  0.12394211  0.63148078    -0.06900
C2374       C  0.62925921  0.14366096  0.64329203     0.13900
C2375       C  0.61834242  0.14238966  0.67008095    -0.23800
H2376       H  0.63816067  0.17986439  0.63832292     0.15200
H2377       H  0.64149572  0.11371390  0.59745682     0.15200
C2378       C  0.66103190  0.15201930  0.56605060    -0.23700
H2379       H  0.61801309  0.15875640  0.67420939     0.05400
H2380       H  0.62916718  0.14128537  0.68598918     0.08700
H2381       H  0.59953645  0.12714348  0.67152991     0.08700
H2382       H  0.67963758  0.16789145  0.56550904     0.08700
H2383       H  0.65010890  0.15376722  0.55066081     0.08700
H2384       H  0.66181094  0.13603353  0.56112059     0.05400
C2385       C  0.46535907  0.12081807  0.87348821    -0.20400
C2386       C  0.47454412  0.12042347  0.84846857    -0.06900
C2387       C  0.49141579  0.14303937  0.83639195     0.13900
C2388       C  0.49931447  0.16426420  0.85009968    -0.20400
C2389       C  0.49288707  0.16423315  0.87630708    -0.06900
C2390       C  0.47459168  0.14230670  0.88774904     0.13900
C2391       C  0.46533387  0.14105310  0.91527543    -0.23800
H2392       H  0.45243802  0.10425406  0.88321632     0.15200
H2393       H  0.51250866  0.18113556  0.84084300     0.15200
C2394       C  0.50331422  0.14581559  0.80998206    -0.23700
H2395       H  0.45028584  0.12269082  0.92045096     0.05400
H2396       H  0.45867932  0.15333739  0.91689746     0.08700
H2397       H  0.47975924  0.14604186  0.92983635     0.08700
H2398       H  0.49020171  0.13990930  0.79382017     0.08700
H2399       H  0.51279378  0.13617824  0.81004807     0.08700
H2400       H  0.51716768  0.16479419  0.80526626     0.05400
C2401       C  0.48949609  0.13396838  0.58546843    -0.20400
C2402       C  0.49398278  0.15439334  0.59919993    -0.06900
C2403       C  0.48334304  0.15136063  0.62422445     0.13900
C2404       C  0.47069346  0.12842422  0.63587477    -0.20400
C2405       C  0.46923621  0.10836159  0.62385736    -0.06900
C2406       C  0.47713538  0.11104605  0.59716341     0.13900
C2407       C  0.47319179  0.09017902  0.58065390    -0.23800
H2408       H  0.49664237  0.13606498  0.56568953     0.15200
H2409       H  0.46292208  0.12697009  0.65498850     0.15200
C2410       C  0.48524378  0.17215538  0.63891327    -0.23700
H2411       H  0.48119256  0.09609212  0.56065310     0.05400
H2412       H  0.45377544  0.07727486  0.57783985     0.08700
H2413       H  0.48139342  0.08091113  0.58967727     0.08700
H2414       H  0.47861734  0.18126259  0.62634929     0.08700
H2415       H  0.50410398  0.18507321  0.64453490     0.08700
H2416       H  0.47443154  0.16623955  0.65737583     0.05400
C2417       C  0.34867334  0.86100911  0.89338974    -0.20400
C2418       C  0.33626315  0.84011929  0.87827940    -0.06900
C2419       C  0.32714763  0.84131516  0.85361627     0.13900
C2420       C  0.33326532  0.86378012  0.84340810    -0.20400
C2421       C  0.34927904  0.88547981  0.85657470    -0.06900
C2422       C  0.35537865  0.88357627  0.88304426     0.13900
C2423       C  0.37028316  0.90514136  0.90029543    -0.23800
H2424       H  0.35463825  0.85994376  0.91295696     0.15200
H2425       H  0.32682073  0.86384162  0.82401559     0.15200
C2426       C  0.31128528  0.81910664  0.83765577    -0.23700
H2427       H  0.37406998  0.90004956  0.91973823     0.05400
H2428       H  0.36037332  0.91407801  0.90436250     0.08700
H2429       H  0.38785354  0.91788394  0.89094835     0.08700
H2430       H  0.29555572  0.80596666  0.84968116     0.08700
H2431       H  0.32144068  0.81094553  0.83118283     0.08700
H2432       H  0.30450733  0.82318349  0.81963967     0.05400
C2433       C  0.35055602  0.83627650  0.62204328    -0.20400
C2434       C  0.33755928  0.83281977  0.59907962    -0.06900
C2435       C  0.33273198  0.85053548  0.59133129     0.13900
C2436       C  0.34256529  0.87192627  0.60592133    -0.20400
C2437       C  0.35768459  0.87640207  0.62764308    -0.06900
C2438       C  0.36108019  0.85761937  0.63602315     0.13900
C2439       C  0.37670847  0.85903630  0.65862384    -0.23800
H2440       H  0.35405715  0.82266662  0.62841674     0.15200
H2441       H  0.33888715  0.88529485  0.59955556     0.15200
C2442       C  0.31721147  0.84708301  0.56791779    -0.23700
H2443       H  0.36556253  0.84492828  0.67346743     0.05400
H2444       H  0.38631268  0.87628012  0.66876685     0.08700
H2445       H  0.39062390  0.85586570  0.65112290     0.08700
H2446       H  0.29952101  0.83013917  0.57030308     0.08700
H2447       H  0.32598884  0.84649697  0.54950461     0.08700
H2448       H  0.31408245  0.86199259  0.56579018     0.05400
C2449       C  0.52205947  0.88558863  0.86174755    -0.20400
C2450       C  0.50979985  0.88794924  0.84034797    -0.06900
C2451       C  0.48939334  0.86652144  0.83029626     0.13900
C2452       C  0.48108739  0.84462611  0.84320116    -0.20400
C2453       C  0.49141802  0.84307242  0.86655683    -0.06900
C2454       C  0.51289131  0.86363318  0.87529510     0.13900
C2455       C  0.52613715  0.86280995  0.89906332    -0.23800
H2456       H  0.53814930  0.90101838  0.86921140     0.15200
H2457       H  0.46491787  0.82883409  0.83598435     0.15200
C2458       C  0.47422730  0.86541863  0.80727371    -0.23700
H2459       H  0.54350639  0.87999366  0.90176588     0.05400
H2460       H  0.52993413  0.84839243  0.89666758     0.08700
H2461       H  0.51538664  0.85953888  0.91721024     0.08700
H2462       H  0.47978294  0.88269129  0.79777916     0.08700
H2463       H  0.45549541  0.85771581  0.81410479     0.08700
H2464       H  0.47430036  0.85354716  0.79185469     0.05400
C2465       C  0.47184020  0.84708323  0.62006987    -0.20400
C2466       C  0.48472090  0.84357940  0.60071039    -0.06900
C2467       C  0.50852276  0.86228337  0.59510460     0.13900
C2468       C  0.51806706  0.88461742  0.60761814    -0.20400
C2469       C  0.50450518  0.88887789  0.62577812    -0.06900
C2470       C  0.48118597  0.86903356  0.63289430     0.13900
C2471       C  0.46538155  0.87000535  0.65395778    -0.23800
H2472       H  0.45375865  0.83254528  0.62473790     0.15200
H2473       H  0.53612483  0.89865949  0.60264767     0.15200
C2474       C  0.52413236  0.85873870  0.57638151    -0.23700
H2475       H  0.44788662  0.85275713  0.65584944     0.05400
H2476       H  0.46100213  0.88367776  0.64959899     0.08700
H2477       H  0.47389848  0.87315728  0.67349075     0.08700
H2478       H  0.51692744  0.85586823  0.55607123     0.08700
H2479       H  0.52490511  0.84303003  0.58280339     0.08700
H2480       H  0.54274747  0.87461642  0.57577167     0.05400
C2481       C  0.12936411  0.48550379  0.63980050    -0.20400
C2482       C  0.10886314  0.48305789  0.62777410    -0.06900
C2483       C  0.11018042  0.48784183  0.60011698     0.13900
C2484       C  0.13235042  0.49817108  0.58694149    -0.20400
C2485       C  0.15334191  0.50394549  0.60029935    -0.06900
C2486       C  0.15154716  0.49629402  0.62668341     0.13900
C2487       C  0.17299597  0.49965345  0.64134565    -0.23800
H2488       H  0.12901353  0.48043146  0.66005214     0.15200
H2489       H  0.13354930  0.50315343  0.56633151     0.15200
C2490       C  0.08873510  0.48303573  0.58413258    -0.23700
H2491       H  0.16799214  0.49092112  0.66111232     0.05400
H2492       H  0.18626313  0.51899456  0.64444348     0.08700
H2493       H  0.18135252  0.49157334  0.63000438     0.08700
H2494       H  0.08063774  0.49278476  0.59201843     0.08700
H2495       H  0.07518602  0.46353814  0.58380748     0.08700
H2496       H  0.09365302  0.48884311  0.56326717     0.05400
C2497       C  0.14742731  0.48916656  0.86689817    -0.20400
C2498       C  0.15117792  0.50343737  0.88894996    -0.06900
C2499       C  0.13137739  0.50282484  0.90072791     0.13900
C2500       C  0.10920597  0.49054626  0.88802681    -0.20400
C2501       C  0.10643974  0.47954364  0.86347451    -0.06900
C2502       C  0.12480968  0.47590609  0.85506625     0.13900
C2503       C  0.12073313  0.45662431  0.83605743    -0.23800
H2504       H  0.16207981  0.48789681  0.85925625     0.15200
H2505       H  0.09448807  0.49149603  0.89604467     0.15200
C2506       C  0.13372096  0.51652712  0.92546902    -0.23700
H2507       H  0.12682857  0.44539732  0.84513517     0.05400
H2508       H  0.13119375  0.46481757  0.81766908     0.08700
H2509       H  0.10149294  0.44421408  0.83155201     0.08700
H2510       H  0.14727855  0.53590170  0.92244369     0.08700
H2511       H  0.13907022  0.50946204  0.94219058     0.08700
H2512       H  0.11656595  0.51478989  0.93102762     0.05400
C2513       C  0.07011665  0.45569303  0.73018045    -0.20400
C2514       C  0.06898936  0.47437670  0.71818325    -0.06900
C2515       C  0.06662642  0.49047960  0.73431891     0.13900
C2516       C  0.06487201  0.48708813  0.76165043    -0.20400
C2517       C  0.06660994  0.46890057  0.77364099    -0.06900
C2518       C  0.06902018  0.45275517  0.75769821     0.13900
C2519       C  0.06991703  0.43197552  0.76881824    -0.23800
H2520       H  0.07176287  0.44319250  0.71794532     0.15200
H2521       H  0.06308632  0.49944264  0.77385095     0.15200
C2522       C  0.06803240  0.51253184  0.72352125    -0.23700
H2523       H  0.05503868  0.41496811  0.76048649     0.05400
H2524       H  0.06810114  0.43044716  0.79054457     0.08700
H2525       H  0.08720918  0.43399186  0.76332059     0.08700
H2526       H  0.05244198  0.50770728  0.71097381     0.08700
H2527       H  0.08498781  0.52331999  0.71232303     0.08700
H2528       H  0.06814710  0.52411510  0.73943553     0.05400
C2529       C  0.85616295  0.35213720  0.63631512    -0.20400
C2530       C  0.87825404  0.36975960  0.62473713    -0.06900
C2531       C  0.87791928  0.37602373  0.59786506     0.13900
C2532       C  0.85587315  0.36745023  0.58529086    -0.20400
C2533       C  0.83398005  0.35279347  0.59847457    -0.06900
C2534       C  0.83417486  0.34396023  0.62382694     0.13900
C2535       C  0.81134567  0.32626605  0.63824649    -0.23800
H2536       H  0.85526577  0.34573881  0.65607343     0.15200
H2537       H  0.85580106  0.37340973  0.56534228     0.15200
C2538       C  0.90048842  0.39266093  0.58234999    -0.23700
H2539       H  0.81492042  0.32002922  0.65705131     0.05400
H2540       H  0.80028166  0.31025442  0.62579091     0.08700
H2541       H  0.80112815  0.33473274  0.64322029     0.08700
H2542       H  0.91114443  0.38429359  0.57988895     0.08700
H2543       H  0.91137510  0.41027459  0.59210996     0.08700
H2544       H  0.89647073  0.39623069  0.56220710     0.05400
C2545       C  0.97996887  0.41101992  0.66485336    -0.20400
C2546       C  0.96859412  0.41608040  0.64496412    -0.06900
C2547       C  0.98243913  0.43193727  0.62428166     0.13900
C2548       C  0.00756338  0.44395053  0.62532608    -0.20400
C2549       C  0.01892393  0.44107228  0.64708904    -0.06900
C2550       C  0.00499315  0.42368485  0.66651739     0.13900
C2551       C  0.01639218  0.41901926  0.68950350    -0.23800
H2552       H  0.96922453  0.39795708  0.67986859     0.15200
H2553       H  0.01837651  0.45689014  0.61010991     0.15200
C2554       C  0.97084420  0.43722247  0.60201885    -0.23700
H2555       H  0.00289885  0.40383195  0.70195598     0.05400
H2556       H  0.02554132  0.43509663  0.70211601     0.08700
H2557       H  0.02951045  0.41463465  0.68228071     0.08700
H2558       H  0.96063925  0.44484376  0.60996265     0.08700
H2559       H  0.95849367  0.42045262  0.59127165     0.08700
H2560       H  0.98431257  0.45034666  0.58773673     0.05400
C2561       C  0.85598269  0.34277504  0.85138167    -0.20400
C2562       C  0.87680661  0.36286962  0.86194865    -0.06900
C2563       C  0.87474211  0.37101582  0.88726351     0.13900
C2564       C  0.85205650  0.36209039  0.89817134    -0.20400
C2565       C  0.83116864  0.34553319  0.88483337    -0.06900
C2566       C  0.83313457  0.33446308  0.86208949     0.13900
C2567       C  0.81136321  0.31408035  0.84892923    -0.23800
H2568       H  0.85693018  0.33425157  0.83378170     0.15200
H2569       H  0.85074766  0.36972703  0.91651449     0.15200
C2570       C  0.89531401  0.39072178  0.90278156    -0.23700
H2571       H  0.81632545  0.30657450  0.83236328     0.05400
H2572       H  0.80007272  0.32040788  0.84073636     0.08700
H2573       H  0.80082683  0.29942379  0.86344377     0.08700
H2574       H  0.89259823  0.40585928  0.90531259     0.08700
H2575       H  0.91304318  0.39811498  0.89385483     0.08700
H2576       H  0.89579507  0.38370302  0.92258211     0.05400
C2577       C  0.97899998  0.40117509  0.83207921    -0.20400
C2578       C  0.96693481  0.40962680  0.84655068    -0.06900
C2579       C  0.97980225  0.42875185  0.86431660     0.13900
C2580       C  0.00470842  0.43987376  0.86577404    -0.20400
C2581       C  0.01698943  0.43414050  0.84780070    -0.06900
C2582       C  0.00406293  0.41386007  0.83165519     0.13900
C2583       C  0.01666352  0.40638051  0.81306066    -0.23800
H2584       H  0.96888146  0.38575253  0.81953970     0.15200
H2585       H  0.01473319  0.45464452  0.87922910     0.15200
C2586       C  0.96821842  0.43898096  0.88056761    -0.23700
H2587       H  0.00383335  0.38961421  0.80252864     0.05400
H2588       H  0.02926970  0.40329504  0.82419397     0.08700
H2589       H  0.02666796  0.42065006  0.79805490     0.08700
H2590       H  0.94876895  0.43001111  0.87707308     0.08700
H2591       H  0.97651116  0.45828087  0.87561052     0.08700
H2592       H  0.97101149  0.43722263  0.90183003     0.05400
C2593       C  0.93573900  0.39413513  0.72809652    -0.20400
C2594       C  0.91607256  0.39283496  0.71590625    -0.06900
C2595       C  0.89652600  0.38909710  0.73145753     0.13900
C2596       C  0.89712179  0.38639662  0.75873053    -0.20400
C2597       C  0.91690881  0.38796549  0.77104055    -0.06900
C2598       C  0.93634433  0.39151726  0.75547747     0.13900
C2599       C  0.95726237  0.39157030  0.76729062    -0.23800
H2600       H  0.95061248  0.39703108  0.71621469     0.15200
H2601       H  0.88218598  0.38357266  0.77060150     0.15200
C2602       C  0.87551059  0.38916642  0.71977849    -0.23700
H2603       H  0.96999010  0.39297640  0.75193910     0.05400
H2604       H  0.95064972  0.37454958  0.77831421     0.08700
H2605       H  0.96736055  0.40710237  0.78050832     0.08700
H2606       H  0.86484697  0.37332858  0.70706597     0.08700
H2607       H  0.88191409  0.40579010  0.70802615     0.08700
H2608       H  0.86324408  0.38845582  0.73529965     0.05400
C2609       C  0.11277635  0.64727620  0.58890129    -0.20400
C2610       C  0.11346818  0.64908829  0.61669546    -0.06900
C2611       C  0.13653562  0.66031071  0.62887147     0.13900
C2612       C  0.15683157  0.66697980  0.61359259    -0.20400
C2613       C  0.15517885  0.66150699  0.58690430    -0.06900
C2614       C  0.13312499  0.65290908  0.57394115     0.13900
C2615       C  0.13026923  0.64784358  0.54477748    -0.23800
H2616       H  0.09585366  0.63877302  0.57877589     0.15200
H2617       H  0.17407097  0.67470164  0.62316487     0.15200
C2618       C  0.14053541  0.66341802  0.65818246    -0.23700
H2619       H  0.11174514  0.64115875  0.53805583     0.05400
H2620       H  0.13428840  0.63390055  0.54006577     0.08700
H2621       H  0.14252008  0.66456226  0.53355373     0.08700
H2622       H  0.13011925  0.64575753  0.66805630     0.08700
H2623       H  0.13621830  0.67643539  0.66569572     0.08700
H2624       H  0.15951763  0.67081844  0.66361474     0.05400
C2625       C  0.04851973  0.54671419  0.65223449    -0.20400
C2626       C  0.06992781  0.56815859  0.65827079    -0.06900
C2627       C  0.08967419  0.56717840  0.66722740     0.13900
C2628       C  0.08865275  0.54546398  0.66608412    -0.20400
C2629       C  0.06783740  0.52423369  0.65804792    -0.06900
C2630       C  0.04724343  0.52471617  0.65170926     0.13900
C2631       C  0.02457916  0.50268294  0.64237361    -0.23800
H2632       H  0.03308605  0.54735492  0.64666869     0.15200
H2633       H  0.10426424  0.54504916  0.67181774     0.15200
C2634       C  0.11177355  0.58844057  0.67884995    -0.23700
H2635       H  0.01076590  0.50668654  0.63685986     0.05400
H2636       H  0.01680210  0.48880947  0.65810734     0.08700
H2637       H  0.02858153  0.49557930  0.62469521     0.08700
H2638       H  0.11501413  0.58356587  0.69870223     0.08700
H2639       H  0.10996037  0.60406825  0.68149584     0.08700
H2640       H  0.12752069  0.59370272  0.66604047     0.05400
C2641       C  0.13863035  0.64633294  0.88654679    -0.20400
C2642       C  0.15992903  0.65824537  0.87190920    -0.06900
C2643       C  0.15948260  0.66509370  0.84571543     0.13900
C2644       C  0.13740526  0.65789299  0.83405631    -0.20400
C2645       C  0.11538056  0.64317387  0.84753864    -0.06900
C2646       C  0.11638775  0.63835027  0.87483499     0.13900
C2647       C  0.09430484  0.62334617  0.89170898    -0.23800
H2648       H  0.13923152  0.64167723  0.90694831     0.15200
H2649       H  0.13783783  0.66207107  0.81344065     0.15200
C2650       C  0.18217974  0.67958789  0.82972158    -0.23700
H2651       H  0.09884402  0.62028604  0.91182362     0.05400
H2652       H  0.08236413  0.60540724  0.88297445     0.08700
H2653       H  0.08469340  0.63279327  0.89427451     0.08700
H2654       H  0.19061438  0.66906723  0.82641185     0.08700
H2655       H  0.19485646  0.69639733  0.84025556     0.08700
H2656       H  0.17869050  0.68459222  0.81005469     0.05400
C2657       C  0.08276831  0.53486485  0.81071599    -0.20400
C2658       C  0.06357093  0.51680699  0.82550593    -0.06900
C2659       C  0.04478194  0.51994611  0.83318694     0.13900
C2660       C  0.04655152  0.54174882  0.82749558    -0.20400
C2661       C  0.06668097  0.56038785  0.81441215    -0.06900
C2662       C  0.08429286  0.55634102  0.80458874     0.13900
C2663       C  0.10498155  0.57437959  0.78772557    -0.23800
H2664       H  0.09681095  0.53221040  0.80398304     0.15200
H2665       H  0.03298138  0.54480941  0.83495992     0.15200
C2666       C  0.02341689  0.50135166  0.84863570    -0.23700
H2667       H  0.10514937  0.56587280  0.76895790     0.05400
H2668       H  0.12209386  0.58081450  0.79823087     0.08700
H2669       H  0.10360602  0.58990945  0.78258748     0.08700
H2670       H  0.02193836  0.50908481  0.86739244     0.08700
H2671       H  0.02473082  0.48583839  0.85343992     0.08700
H2672       H  0.00697235  0.49488029  0.83687908     0.05400
C2673       C  0.05075858  0.60912693  0.74656387    -0.20400
C2674       C  0.07318207  0.61748134  0.75829459    -0.06900
C2675       C  0.09376107  0.62732509  0.74182187     0.13900
C2676       C  0.09146561  0.63005924  0.71495504    -0.20400
C2677       C  0.06925178  0.62206561  0.70321745    -0.06900
C2678       C  0.04859022  0.61170202  0.71936750     0.13900
C2679       C  0.02419464  0.60394499  0.70883803    -0.23800
H2680       H  0.03469518  0.60070619  0.75859263     0.15200
H2681       H  0.10727903  0.63723750  0.70283254     0.15200
C2682       C  0.11831737  0.63362011  0.75071869    -0.23700
H2683       H  0.01696545  0.61333202  0.71974185     0.05400
H2684       H  0.01188315  0.58428939  0.71165351     0.08700
H2685       H  0.02460244  0.60837843  0.68769760     0.08700
H2686       H  0.11913895  0.62856843  0.77123043     0.08700
H2687       H  0.13124756  0.65320808  0.74823969     0.08700
H2688       H  0.12435964  0.62394068  0.73832848     0.05400
C2689       C  0.83566263  0.49807622  0.62464924    -0.20400
C2690       C  0.83444186  0.50394741  0.59840508    -0.06900
C2691       C  0.85516296  0.52368564  0.58661493     0.13900
C2692       C  0.87688646  0.53539354  0.60061243    -0.20400
C2693       C  0.87881964  0.52762165  0.62589775    -0.06900
C2694       C  0.85723396  0.50933711  0.63858719     0.13900
C2695       C  0.85621758  0.50033094  0.66645630    -0.23800
H2696       H  0.81968614  0.48354572  0.63409227     0.15200
H2697       H  0.89255435  0.54964729  0.59071582     0.15200
C2698       C  0.85491335  0.53228587  0.55907263    -0.23700
H2699       H  0.83816458  0.48472916  0.67156872     0.05400
H2700       H  0.85985562  0.51434982  0.68094440     0.08700
H2701       H  0.86877261  0.49421537  0.66921842     0.08700
H2702       H  0.84075501  0.53651623  0.55751771     0.08700
H2703       H  0.85168454  0.51836245  0.54453392     0.08700
H2704       H  0.87225957  0.54878612  0.55376421     0.05400
C2705       C  0.93042596  0.48793692  0.67696693    -0.20400
C2706       C  0.93022518  0.49678353  0.65182533    -0.06900
C2707       C  0.93104297  0.48472220  0.62931724     0.13900
C2708       C  0.93021677  0.46322694  0.63255071    -0.20400
C2709       C  0.92797064  0.45296904  0.65757740    -0.06900
C2710       C  0.92880495  0.46589770  0.68023040     0.13900
C2711       C  0.92631920  0.45655765  0.70796068    -0.23800
H2712       H  0.93007448  0.49736251  0.69421354     0.15200
H2713       H  0.92984191  0.45358906  0.61510987     0.15200
C2714       C  0.93204820  0.49349325  0.60152187    -0.23700
H2715       H  0.91020824  0.45468849  0.71741442     0.05400
H2716       H  0.94235716  0.46941142  0.71951876     0.08700
H2717       H  0.92449489  0.43895428  0.70893436     0.08700
H2718       H  0.93271485  0.51062589  0.60053798     0.08700
H2719       H  0.91598116  0.47983981  0.59057110     0.08700
H2720       H  0.94831077  0.49628149  0.59144026     0.05400
C2721       C  0.98271203  0.56134729  0.61394041    -0.20400
C2722       C  0.97193585  0.57287067  0.62477252    -0.06900
C2723       C  0.98638152  0.59692033  0.63276894     0.13900
C2724       C  0.01133425  0.60764569  0.63357576    -0.20400
C2725       C  0.02190009  0.59499680  0.62549582    -0.06900
C2726       C  0.00762143  0.57233491  0.61367596     0.13900
C2727       C  0.01793880  0.55910222  0.60109905    -0.23800
H2728       H  0.97163933  0.54302763  0.60730473     0.15200
H2729       H  0.02251667  0.62548208  0.64164284     0.15200
C2730       C  0.97538587  0.61090274  0.64096347    -0.23700
H2731       H  0.01329952  0.55658130  0.57984603     0.05400
H2732       H  0.01002966  0.54112247  0.61036835     0.08700
H2733       H  0.03772695  0.56887113  0.60264453     0.08700
H2734       H  0.96220444  0.60142867  0.65698618     0.08700
H2735       H  0.96594475  0.61271725  0.62388379     0.08700
H2736       H  0.98911926  0.62914922  0.64784628     0.05400
C2737       C  0.86368126  0.52407946  0.83719457    -0.20400
C2738       C  0.88394610  0.52634956  0.84971101    -0.06900
C2739       C  0.88158788  0.51973958  0.87686552     0.13900
C2740       C  0.85882140  0.50769790  0.88876418    -0.20400
C2741       C  0.83820968  0.50230588  0.87479274    -0.06900
C2742       C  0.84090311  0.51185274  0.84914996     0.13900
C2743       C  0.81990999  0.50917907  0.83412420    -0.23800
H2744       H  0.86479312  0.53062223  0.81744712     0.15200
H2745       H  0.85699730  0.50142386  0.90895368     0.15200
C2746       C  0.90263069  0.52454389  0.89362588    -0.23700
H2747       H  0.82555091  0.51919274  0.81510333     0.05400
H2748       H  0.81091369  0.51628498  0.84600711     0.08700
H2749       H  0.80699593  0.49003453  0.82950723     0.08700
H2750       H  0.91537047  0.54412104  0.89555022     0.08700
H2751       H  0.91194816  0.51614783  0.88531248     0.08700
H2752       H  0.89695903  0.51728111  0.91395220     0.05400
C2753       C  0.90568858  0.46687870  0.81127905    -0.20400
C2754       C  0.92730056  0.48810629  0.81752982    -0.06900
C2755       C  0.94788602  0.48689270  0.82212100     0.13900
C2756       C  0.94541917  0.46429034  0.82318280    -0.20400
C2757       C  0.92316354  0.44308113  0.81934184    -0.06900
C2758       C  0.90346323  0.44462507  0.81140616     0.13900
C2759       C  0.87968913  0.42334480  0.80292860    -0.23800
H2760       H  0.89000059  0.46754248  0.80666809     0.15200
H2761       H  0.96071840  0.46316951  0.82848391     0.15200
C2762       C  0.97240975  0.50841113  0.82729802    -0.23700
H2763       H  0.87534026  0.42675989  0.78288169     0.05400
H2764       H  0.86542539  0.42063772  0.81684004     0.08700
H2765       H  0.87956246  0.40655175  0.80192948     0.08700
H2766       H  0.97841919  0.50679850  0.84720332     0.08700
H2767       H  0.97318199  0.52543551  0.82643742     0.08700
H2768       H  0.98517541  0.50938753  0.81229044     0.05400
C2769       C  0.98719956  0.59054519  0.81750403    -0.20400
C2770       C  0.97453975  0.57089744  0.83463122    -0.06900
C2771       C  0.98699154  0.56619656  0.85382995     0.13900
C2772       C  0.01204709  0.57831433  0.85207361    -0.20400
C2773       C  0.02459096  0.59635304  0.83305244    -0.06900
C2774       C  0.01229849  0.60420566  0.81757809     0.13900
C2775       C  0.02561053  0.62730648  0.80204420    -0.23800
H2776       H  0.97745511  0.59492210  0.80382973     0.15200
H2777       H  0.02175665  0.57319896  0.86488594     0.15200
C2778       C  0.97380859  0.54813206  0.87562405    -0.23700
H2779       H  0.01321512  0.63051893  0.79060957     0.05400
H2780       H  0.03853917  0.62733226  0.78823402     0.08700
H2781       H  0.03572577  0.64244770  0.81585630     0.08700
H2782       H  0.96056975  0.53025500  0.86755295     0.08700
H2783       H  0.96407410  0.55414903  0.88793280     0.08700
H2784       H  0.98628909  0.54622245  0.88852823     0.05400
C2785       C  0.94315558  0.56159841  0.74969944    -0.20400
C2786       C  0.92655667  0.53935844  0.76119101    -0.06900
C2787       C  0.91111152  0.51974306  0.74509369     0.13900
C2788       C  0.91170484  0.52311794  0.71787972    -0.20400
C2789       C  0.92783275  0.54541544  0.70631891    -0.06900
C2790       C  0.94400187  0.56483835  0.72223641     0.13900
C2791       C  0.96146081  0.58900580  0.71043392    -0.23800
H2792       H  0.95500487  0.57652693  0.76224761     0.15200
H2793       H  0.89967942  0.50816183  0.70542035     0.15200
C2794       C  0.89459285  0.49504688  0.75641893    -0.23700
H2795       H  0.97307944  0.60208213  0.72567753     0.05400
H2796       H  0.95141779  0.59607705  0.70063673     0.08700
H2797       H  0.97310986  0.58737685  0.69590632     0.08700
H2798       H  0.88216812  0.49523825  0.77104530     0.08700
H2799       H  0.90553979  0.48894480  0.76591083     0.08700
H2800       H  0.88365871  0.48185079  0.74093776     0.05400
C2801       C  0.49378493  0.34236892  0.62965285    -0.20400
C2802       C  0.49177978  0.33972293  0.60229353    -0.06900
C2803       C  0.47489296  0.34324808  0.58920255     0.13900
C2804       C  0.46238741  0.35150478  0.60351646    -0.20400
C2805       C  0.46647511  0.35698472  0.63058819    -0.06900
C2806       C  0.48172274  0.35098004  0.64396185     0.13900
C2807       C  0.48699476  0.35473795  0.67308672    -0.23800
H2808       H  0.50598693  0.33881941  0.63992935     0.15200
H2809       H  0.45105329  0.35565848  0.59254781     0.15200
C2810       C  0.47066273  0.33964813  0.55991662    -0.23700
H2811       H  0.50096784  0.35111793  0.67910815     0.05400
H2812       H  0.47077332  0.34213413  0.68467597     0.08700
H2813       H  0.49379951  0.37350332  0.67842572     0.08700
H2814       H  0.46486802  0.32095444  0.55476444     0.08700
H2815       H  0.48727308  0.35252665  0.54895585     0.08700
H2816       H  0.45643753  0.34267435  0.55325496     0.05400
C2817       C  0.48946277  0.36670899  0.89578138    -0.20400
C2818       C  0.49459984  0.35149824  0.88202158    -0.06900
C2819       C  0.48478503  0.34376944  0.85666659     0.13900
C2820       C  0.47252243  0.35346644  0.84480905    -0.20400
C2821       C  0.47049671  0.37162796  0.85690231    -0.06900
C2822       C  0.47750087  0.37674195  0.88380238     0.13900
C2823       C  0.47322921  0.39327344  0.90010063    -0.23800
H2824       H  0.49592801  0.37181260  0.91576963     0.15200
H2825       H  0.46594111  0.34737597  0.82521875     0.15200
C2826       C  0.48740187  0.32558275  0.84160718    -0.23700
H2827       H  0.48070611  0.39566945  0.92025197     0.05400
H2828       H  0.45374963  0.38549930  0.90248401     0.08700
H2829       H  0.48176287  0.41135763  0.89099333     0.08700
H2830       H  0.48058578  0.30908202  0.85374353     0.08700
H2831       H  0.50645430  0.33316706  0.83630588     0.08700
H2832       H  0.47712844  0.32034447  0.82291109     0.05400
C2833       C  0.46919380  0.38902318  0.72458032    -0.20400
C2834       C  0.45260652  0.39246550  0.71129247    -0.06900
C2835       C  0.43933358  0.39984741  0.72598085     0.13900
C2836       C  0.44275217  0.40290828  0.75345130    -0.20400
C2837       C  0.45904473  0.39888185  0.76653916    -0.06900
C2838       C  0.47333056  0.39304815  0.75154241     0.13900
C2839       C  0.49400933  0.39208209  0.76274365    -0.23800
H2840       H  0.47987615  0.38397055  0.71362613     0.15200
H2841       H  0.43209171  0.40774424  0.76487036     0.15200
C2842       C  0.42037549  0.40290164  0.71362432    -0.23700
H2843       H  0.51035314  0.40372115  0.75069943     0.05400
H2844       H  0.48983805  0.37338826  0.76208816     0.08700
H2845       H  0.49860678  0.39877256  0.78315538     0.08700
H2846       H  0.40557196  0.38531057  0.70669406     0.08700
H2847       H  0.42775325  0.41599579  0.69713527     0.08700
H2848       H  0.41254782  0.40951094  0.72807228     0.05400
C2849       C  0.37494569  0.49302933  0.59152809    -0.20400
C2850       C  0.36445939  0.48029030  0.61511925    -0.06900
C2851       C  0.34234588  0.47733537  0.62300882     0.13900
C2852       C  0.33524100  0.49216175  0.61171202    -0.20400
C2853       C  0.34790122  0.50758912  0.59048358    -0.06900
C2854       C  0.36720709  0.50684917  0.57925920     0.13900
C2855       C  0.38088454  0.52167383  0.55538796    -0.23800
H2856       H  0.39069757  0.49379593  0.58387330     0.15200
H2857       H  0.31915054  0.49098769  0.61889949     0.15200
C2858       C  0.32446613  0.45715437  0.64059249    -0.23700
H2859       H  0.39607974  0.51963237  0.55026218     0.05400
H2860       H  0.38835042  0.54097610  0.55925933     0.08700
H2861       H  0.36887527  0.51585562  0.53804030     0.08700
H2862       H  0.32264925  0.46436067  0.65958139     0.08700
H2863       H  0.32917400  0.44351788  0.64401554     0.08700
H2864       H  0.30671682  0.44752798  0.63081684     0.05400
C2865       C  0.43672007  0.42778166  0.61282178    -0.20400
C2866       C  0.42750676  0.40740582  0.62905657    -0.06900
C2867       C  0.40452470  0.39731418  0.64027903     0.13900
C2868       C  0.39368971  0.41074587  0.64013274    -0.20400
C2869       C  0.40421484  0.43253041  0.62625440    -0.06900
C2870       C  0.42434992  0.43964290  0.61004547     0.13900
C2871       C  0.43273936  0.45975600  0.59023551    -0.23800
H2872       H  0.45381067  0.43474786  0.60298989     0.15200
H2873       H  0.37749356  0.40469074  0.65152192     0.15200
C2874       C  0.39161492  0.37248790  0.65216271    -0.23700
H2875       H  0.44939254  0.46373908  0.58003027     0.05400
H2876       H  0.43609482  0.47638302  0.59969399     0.08700
H2877       H  0.41860778  0.45444310  0.57519198     0.08700
H2878       H  0.40282291  0.37073076  0.66703651     0.08700
H2879       H  0.38770667  0.35931132  0.63637028     0.08700
H2880       H  0.37440388  0.36783356  0.66151559     0.05400
C2881       C  0.34900103  0.47520439  0.86968692    -0.20400
C2882       C  0.35192420  0.47863450  0.84209299    -0.06900
C2883       C  0.34462146  0.49352424  0.83022799     0.13900
C2884       C  0.33685970  0.50546966  0.84616227    -0.20400
C2885       C  0.33686250  0.50416032  0.87369117    -0.06900
C2886       C  0.34194904  0.48785017  0.88557803     0.13900
C2887       C  0.34148908  0.48453558  0.91507315    -0.23800
H2888       H  0.35472952  0.46455799  0.87958895     0.15200
H2889       H  0.33211581  0.51725022  0.83692105     0.15200
C2890       C  0.34587502  0.49845601  0.80096749    -0.23700
H2891       H  0.34541282  0.47065887  0.92073757     0.05400
H2892       H  0.32344977  0.47869046  0.92297562     0.08700
H2893       H  0.35526348  0.50155854  0.92443792     0.08700
H2894       H  0.33293617  0.48177950  0.79049838     0.08700
H2895       H  0.36435539  0.50624533  0.79338380     0.08700
H2896       H  0.34078959  0.51162241  0.79605261     0.05400
C2897       C  0.41627337  0.44283970  0.85742844    -0.20400
C2898       C  0.40117372  0.43864185  0.83592925    -0.06900
C2899       C  0.39714973  0.42107517  0.81725218     0.13900
C2900       C  0.41055562  0.41035071  0.81859128    -0.20400
C2901       C  0.42716382  0.41603209  0.83869220    -0.06900
C2902       C  0.42892574  0.43114627  0.85938440     0.13900
C2903       C  0.44464409  0.43549243  0.88290918    -0.23800
H2904       H  0.41912012  0.45615636  0.87187959     0.15200
H2905       H  0.40859231  0.39800416  0.80330491     0.15200
C2906       C  0.37945212  0.41385782  0.79514770    -0.23700
H2907       H  0.44463112  0.44850477  0.89672604     0.05400
H2908       H  0.46337883  0.44253725  0.87675420     0.08700
H2909       H  0.43788101  0.41831938  0.89370936     0.08700
H2910       H  0.38911532  0.41949566  0.77595423     0.08700
H2911       H  0.36827577  0.42168119  0.79711785     0.08700
H2912       H  0.36705962  0.39405201  0.79532452     0.05400
C2913       C  0.40866023  0.47975462  0.71655676    -0.20400
C2914       C  0.38814966  0.46163544  0.70396776    -0.06900
C2915       C  0.36832280  0.44477986  0.71929465     0.13900
C2916       C  0.36912014  0.44739743  0.74683367    -0.20400
C2917       C  0.38921825  0.46655889  0.75938190    -0.06900
C2918       C  0.40939085  0.48289796  0.74383798     0.13900
C2919       C  0.43107051  0.50495539  0.75496339    -0.23800
H2920       H  0.42398233  0.49236534  0.70483232     0.15200
H2921       H  0.35375195  0.43465696  0.75859916     0.15200
C2922       C  0.34660455  0.42384148  0.70674523    -0.23700
H2923       H  0.44361041  0.51684692  0.73923254     0.05400
H2924       H  0.44139541  0.50010403  0.76781544     0.08700
H2925       H  0.42535382  0.51554738  0.76587419     0.08700
H2926       H  0.35205684  0.41323017  0.69518259     0.08700
H2927       H  0.33776613  0.43024821  0.69350537     0.08700
H2928       H  0.33323115  0.41177676  0.72175530     0.05400
C2929       C  0.64750461  0.52012705  0.63497500    -0.20400
C2930       C  0.63229630  0.52592004  0.62182591    -0.06900
C2931       C  0.62828366  0.52053853  0.59440796     0.13900
C2932       C  0.63674804  0.50723163  0.58244144    -0.20400
C2933       C  0.64906875  0.49876758  0.59666668    -0.06900
C2934       C  0.65557464  0.50641857  0.62298879     0.13900
C2935       C  0.67040645  0.49971080  0.63905337    -0.23800
H2936       H  0.65188246  0.52446648  0.65536465     0.15200
H2937       H  0.63253335  0.50233867  0.56193564     0.15200
C2938       C  0.61400628  0.52746737  0.57749061    -0.23700
H2939       H  0.67477686  0.50822563  0.65876670     0.05400
H2940       H  0.68757410  0.50573436  0.62868109     0.08700
H2941       H  0.66039793  0.48001337  0.64229721     0.08700
H2942       H  0.62350640  0.54726311  0.57586505     0.08700
H2943       H  0.59574494  0.52004083  0.58556331     0.08700
H2944       H  0.61184441  0.52063641  0.55707123     0.05400
C2945       C  0.54854673  0.46826576  0.66557785    -0.20400
C2946       C  0.54913141  0.48759767  0.65319956    -0.06900
C2947       C  0.52797160  0.48442267  0.64241523     0.13900
C2948       C  0.50659574  0.46174316  0.64421929    -0.20400
C2949       C  0.50629792  0.44224404  0.65605909    -0.06900
C2950       C  0.52741919  0.44586140  0.66777288     0.13900
C2951       C  0.52803192  0.42647430  0.68298212    -0.23800
H2952       H  0.56505020  0.47063279  0.67310559     0.15200
H2953       H  0.49043115  0.45890155  0.63513020     0.15200
C2954       C  0.52846045  0.50426627  0.62714281    -0.23700
H2955       H  0.54544131  0.43349649  0.69307970     0.05400
H2956       H  0.52565078  0.41215808  0.66966305     0.08700
H2957       H  0.51390445  0.41905078  0.69837903     0.08700
H2958       H  0.54156675  0.50995676  0.61072648     0.08700
H2959       H  0.53356134  0.51966021  0.64029422     0.08700
H2960       H  0.51083581  0.49831767  0.61828408     0.05400
C2961       C  0.65259892  0.52848308  0.83932487    -0.20400
C2962       C  0.63717364  0.53365666  0.85309077    -0.06900
C2963       C  0.63244623  0.52657899  0.88018093     0.13900
C2964       C  0.64051516  0.51246867  0.89110383    -0.20400
C2965       C  0.65306318  0.50479828  0.87611854    -0.06900
C2966       C  0.66020952  0.51393485  0.85026019     0.13900
C2967       C  0.67563073  0.50825055  0.83384595    -0.23800
H2968       H  0.65763832  0.53410122  0.81919884     0.15200
H2969       H  0.63576841  0.50624118  0.91131448     0.15200
C2970       C  0.61790154  0.53258943  0.89782251    -0.23700
H2971       H  0.68078836  0.51808990  0.81472282     0.05400
H2972       H  0.66575706  0.48881049  0.82937848     0.08700
H2973       H  0.69233751  0.51347347  0.84463719     0.08700
H2974       H  0.59992401  0.52591026  0.88945029     0.08700
H2975       H  0.62757661  0.55221470  0.90084113     0.08700
H2976       H  0.61502208  0.52431170  0.91771236     0.05400
C2977       C  0.53455275  0.49794203  0.82686576    -0.20400
C2978       C  0.55486365  0.49793637  0.81874675    -0.06900
C2979       C  0.55201337  0.47679813  0.80799131     0.13900
C2980       C  0.52964006  0.45544502  0.80947959    -0.20400
C2981       C  0.50967492  0.45477692  0.82013140    -0.06900
C2982       C  0.51181492  0.47660672  0.82733318     0.13900
C2983       C  0.49096091  0.47816110  0.83628346    -0.23800
H2984       H  0.53655939  0.51440487  0.83396969     0.15200
H2985       H  0.52785582  0.43899689  0.80265173     0.15200
C2986       C  0.57208338  0.47607080  0.79466493    -0.23700
H2987       H  0.48885818  0.49015188  0.82268696     0.05400
H2988       H  0.49410199  0.48541963  0.85657722     0.08700
H2989       H  0.47391926  0.46075303  0.83609037     0.08700
H2990       H  0.57620670  0.46427426  0.80607605     0.08700
H2991       H  0.58866975  0.49399496  0.79243946     0.08700
H2992       H  0.56644564  0.46874369  0.77449624     0.05400
C2993       C  0.58632383  0.53021543  0.75469688    -0.20400
C2994       C  0.60787958  0.54836520  0.76563993    -0.06900
C2995       C  0.62730641  0.56340893  0.74864006     0.13900
C2996       C  0.62480999  0.55911138  0.72134459    -0.20400
C2997       C  0.60334021  0.54035268  0.71045686    -0.06900
C2998       C  0.58388682  0.52561820  0.72763974     0.13900
C2999       C  0.56135889  0.50335980  0.71856760    -0.23800
H3000       H  0.57154578  0.51840065  0.76763995     0.15200
H3001       H  0.63976045  0.57066524  0.70839434     0.15200
C3002       C  0.65060854  0.58443076  0.75840952    -0.23700
H3003       H  0.54889090  0.49330902  0.73516908     0.05400
H3004       H  0.56631816  0.49131709  0.70972656     0.08700
H3005       H  0.55135473  0.50764691  0.70454273     0.08700
H3006       H  0.65025249  0.58761314  0.77978219     0.08700
H3007       H  0.65447848  0.60099447  0.74792799     0.08700
H3008       H  0.66533605  0.58140762  0.75435522     0.05400
C3009       C  0.52646589  0.64994231  0.60862140    -0.20400
C3010       C  0.52034905  0.64204710  0.63500238    -0.06900
C3011       C  0.50401139  0.64679510  0.64801331     0.13900
C3012       C  0.49275162  0.65639918  0.63370177    -0.20400
C3013       C  0.49705115  0.66184584  0.60676758    -0.06900
C3014       C  0.51511000  0.65963485  0.59440007     0.13900
C3015       C  0.52206135  0.66651447  0.56591083    -0.23800
H3016       H  0.53901212  0.64720685  0.59811289     0.15200
H3017       H  0.47967723  0.65889648  0.64361574     0.15200
C3018       C  0.49729251  0.64130130  0.67684633    -0.23700
H3019       H  0.53697646  0.66433778  0.55982733     0.05400
H3020       H  0.52809993  0.68563715  0.56278572     0.08700
H3021       H  0.50660757  0.65490546  0.55298139     0.08700
H3022       H  0.51268856  0.65361303  0.68937574     0.08700
H3023       H  0.49093248  0.62247042  0.68163903     0.08700
H3024       H  0.48258314  0.64397649  0.68240785     0.05400
C3025       C  0.48749551  0.53893841  0.65424618    -0.20400
C3026       C  0.48615447  0.55768755  0.66514447    -0.06900
C3027       C  0.46422176  0.55268504  0.67596646     0.13900
C3028       C  0.44339141  0.53058468  0.67088746    -0.20400
C3029       C  0.44416894  0.51252107  0.65724050    -0.06900
C3030       C  0.46676339  0.51607051  0.65095370     0.13900
C3031       C  0.46979948  0.49671986  0.64011303    -0.23800
H3032       H  0.50458998  0.54237973  0.64724522     0.15200
H3033       H  0.42627801  0.52747745  0.67739793     0.15200
C3034       C  0.46231485  0.57019621  0.69306942    -0.23700
H3035       H  0.47682677  0.50143905  0.61964164     0.05400
H3036       H  0.48262426  0.49498818  0.65258970     0.08700
H3037       H  0.45299427  0.47905081  0.64026491     0.08700
H3038       H  0.48012872  0.58578483  0.69834026     0.08700
H3039       H  0.45319743  0.56123240  0.71187954     0.08700
H3040       H  0.45175334  0.57649475  0.68284489     0.05400
C3041       C  0.57105616  0.56560078  0.61781693    -0.20400
C3042       C  0.58877456  0.57094606  0.63659734    -0.06900
C3043       C  0.59612283  0.59048986  0.65364722     0.13900
C3044       C  0.58400702  0.60270581  0.65325753    -0.20400
C3045       C  0.56436340  0.59547612  0.63663592    -0.06900
C3046       C  0.55830858  0.57722624  0.61802626     0.13900
C3047       C  0.53750281  0.56843870  0.59947856    -0.23800
H3048       H  0.56584244  0.55101447  0.60426319     0.15200
H3049       H  0.58850218  0.61658663  0.66765050     0.15200
C3050       C  0.61584644  0.59763359  0.67326117    -0.23700
H3051       H  0.54401899  0.57065112  0.57882920     0.05400
H3052       H  0.52826485  0.57831980  0.60150730     0.08700
H3053       H  0.52424348  0.54912391  0.60330495     0.08700
H3054       H  0.63236620  0.60144746  0.66288578     0.08700
H3055       H  0.61028825  0.58293171  0.68771332     0.08700
H3056       H  0.62002943  0.61391409  0.68434120     0.05400
C3057       C  0.53000533  0.65700764  0.87625652    -0.20400
C3058       C  0.52319994  0.64815609  0.85045674    -0.06900
C3059       C  0.50538578  0.65101780  0.83787020     0.13900
C3060       C  0.49395057  0.66030046  0.85205876    -0.20400
C3061       C  0.49869472  0.66620210  0.87865519    -0.06900
C3062       C  0.51790842  0.66577767  0.89056662     0.13900
C3063       C  0.52541903  0.67379835  0.91855075    -0.23800
H3064       H  0.54333086  0.65514062  0.88636551     0.15200
H3065       H  0.47981373  0.66136303  0.84261255     0.15200
C3066       C  0.49649299  0.64291099  0.81006405    -0.23700
H3067       H  0.54175236  0.67381953  0.92391389     0.05400
H3068       H  0.51102261  0.66146137  0.93248006     0.08700
H3069       H  0.52946377  0.69234223  0.92097583     0.08700
H3070       H  0.49047641  0.62385204  0.80723801     0.08700
H3071       H  0.51059428  0.65456848  0.79557524     0.08700
H3072       H  0.48087712  0.64433870  0.80524187     0.05400
C3073       C  0.46400283  0.56400977  0.82009945    -0.20400
C3074       C  0.48318586  0.56291342  0.83023562    -0.06900
C3075       C  0.48002329  0.54026369  0.83524264     0.13900
C3076       C  0.45756050  0.51936455  0.83036817    -0.20400
C3077       C  0.43828822  0.52077775  0.82102563    -0.06900
C3078       C  0.44200473  0.54345486  0.81464104     0.13900
C3079       C  0.42362171  0.54694890  0.80124827    -0.23800
H3080       H  0.46649749  0.58123471  0.81517947     0.15200
H3081       H  0.45472915  0.50197765  0.83524475     0.15200
C3082       C  0.49938541  0.53760897  0.84707515    -0.23700
H3083       H  0.43162246  0.55805562  0.78316470     0.05400
H3084       H  0.41807054  0.55637292  0.81472151     0.08700
H3085       H  0.40752724  0.52999063  0.79487236     0.08700
H3086       H  0.51468449  0.55484472  0.85404309     0.08700
H3087       H  0.50605253  0.53029549  0.83215139     0.08700
H3088       H  0.49221480  0.52532210  0.86439477     0.05400
C3089       C  0.59862516  0.59746776  0.82628424    -0.20400
C3090       C  0.59259107  0.57816826  0.84321651    -0.06900
C3091       C  0.57583505  0.57249896  0.86372730     0.13900
C3092       C  0.56388344  0.58491671  0.86529546    -0.20400
C3093       C  0.56832145  0.60273396  0.84674118    -0.06900
C3094       C  0.58697497  0.61007460  0.82807517     0.13900
C3095       C  0.59421738  0.63040214  0.80893328    -0.23800
H3096       H  0.61163131  0.60193374  0.81066060     0.15200
H3097       H  0.54975044  0.57944106  0.87975813     0.15200
C3098       C  0.56949937  0.55238291  0.88287624    -0.23700
H3099       H  0.61369079  0.64380474  0.81084084     0.05400
H3100       H  0.58474905  0.63984617  0.81261206     0.08700
H3101       H  0.59050554  0.62343536  0.78848512     0.08700
H3102       H  0.58573283  0.55642116  0.89392507     0.08700
H3103       H  0.56240825  0.53528136  0.87214896     0.08700
H3104       H  0.55570176  0.54995227  0.89733860     0.05400
C3105       C  0.55671928  0.63138839  0.75853951    -0.20400
C3106       C  0.53792209  0.61102945  0.77147000    -0.06900
C3107       C  0.52175271  0.59081207  0.75625861     0.13900
C3108       C  0.52457335  0.59173470  0.72891630    -0.20400
C3109       C  0.54219671  0.61259428  0.71595874    -0.06900
C3110       C  0.55912386  0.63241719  0.73099125     0.13900
C3111       C  0.57990439  0.65475098  0.71873154    -0.23800
H3112       H  0.56934299  0.64688697  0.76996741     0.15200
H3113       H  0.51145068  0.57660853  0.71739519     0.15200
C3114       C  0.49967163  0.56926607  0.76771949    -0.23700
H3115       H  0.59688171  0.65832625  0.72759517     0.05400
H3116       H  0.57804201  0.67025160  0.72258893     0.08700
H3117       H  0.58133593  0.65312398  0.69716315     0.08700
H3118       H  0.50435132  0.55962083  0.78190747     0.08700
H3119       H  0.48836962  0.55605479  0.75241367     0.08700
H3120       H  0.48869048  0.57536005  0.77698648     0.05400
loop_ 
_geom_bond_atom_site_label_1 
_geom_bond_atom_site_label_2 
_geom_bond_distance 
_geom_bond_site_symmetry_2 
_ccdc_geom_bond_type 
C1            C2   1.528       .  S
C1            C7   1.539       .  S
C1            C5   1.554       .  S
C1         C1498   1.539       .  S
C2            H9   1.088       .  S
C2            C3   1.355       .  D
C3            C4   1.537       .  S
C3         C1514   1.485       .  S
C4            C8   1.536       .  S
C4            C6   1.542       .  S
C4           H10   1.108       .  S
C5           H11   1.084       .  S
C5            C6   1.377       .  D
C6         C1533   1.484       .  S
C7           H12   1.082       .  S
C7            C8   1.364       .  D
C8         C1546   1.489       .  S
C13          C14   1.542       .  S
C13          C19   1.537       .  S
C13          C17   1.561       .  S
C13        C1450   1.551       .  S
C14          H21   1.082       .  S
C14          C15   1.368       .  D
C15          C16   1.533       .  S
C15        C1549   1.481       .  S
C16          C20   1.526       .  S
C16          C18   1.529       .  S
C16          H22   1.112       .  S
C17          H23   1.082       .  S
C17          C18   1.373       .  D
C18        C1485   1.481       .  S
C19          H24   1.087       .  S
C19          C20   1.359       .  D
C20        C1466   1.481       .  S
C25          C26   1.556       .  S
C25          C31   1.535       .  S
C25          C29   1.547       .  S
C25        C1402   1.550       .  S
C26          H33   1.080       .  S
C26          C27   1.370       .  D
C27          C28   1.536       .  S
C27        C1434   1.488       .  S
C28          C32   1.528       .  S
C28          C30   1.536       .  S
C28          H34   1.112       .  S
C29          H35   1.083       .  S
C29          C30   1.369       .  D
C30        C1530   1.482       .  S
C31          H36   1.088       .  S
C31          C32   1.357       .  D
C32        C1418   1.481       .  S
C37          C38   1.531       .  S
C37          C43   1.555       .  S
C37          C41   1.548       .  S
C37        C1370   1.548       .  S
C38          H45   1.088       .  S
C38          C39   1.354       .  D
C39          C40   1.534       .  S
C39        C1386   1.478       .  S
C40          C44   1.541       .  S
C40          C42   1.539       .  S
C40          H46   1.109       .  S
C41          H47   1.083       .  S
C41          C42   1.370       .  D
C42        C1482   1.485       .  S
C43          H48   1.080       .  S
C43          C44   1.370       .  D
C44        C1437   1.496       .  S
C49          C50   1.545       .  S
C49          C55   1.530       .  S
C49          C53   1.551       .  S
C49        C1322   1.543       .  S
C50          H57   1.079       .  S
C50          C51   1.369       .  D
C51          C52   1.536       .  S
C51        C1357   1.491       .  S
C52          C56   1.529       .  S
C52          C54   1.536       .  S
C52          H58   1.107       .  S
C53          H59   1.085       .  S
C53          C54   1.368       .  D
C54        C1338   1.476       .  S
C55          H60   1.088       .  S
C55          C56   1.357       .  D
C56        C1517   1.479       .  S
C61          C62   1.544       .  S
C61          C67   1.548       .  S
C61          C65   1.537       .  S
C61        C1290   1.541       .  S
C62          H69   1.087       .  S
C62          C63   1.363       .  D
C63          C64   1.535       .  S
C63        C1469   1.488       .  S
C64          C68   1.533       .  S
C64          C66   1.539       .  S
C64          H70   1.111       .  S
C65          H71   1.086       .  S
C65          C66   1.364       .  D
C66        C1309   1.474       .  S
C67          H72   1.081       .  S
C67          C68   1.368       .  D
C68        C1354   1.483       .  S
C73          C74   1.541       .  S
C73          C79   1.549       .  S
C73          C77   1.541       .  S
C73        C1261   1.548       .  S
C74          H81   1.087       .  S
C74          C75   1.363       .  D
C75          C76   1.530       .  S
C75        C1421   1.485       .  S
C76          C80   1.531       .  S
C76          C78   1.544       .  S
C76          H82   1.111       .  S
C77          H83   1.084       .  S
C77          C78   1.369       .  D
C78        C1341   1.475       .  S
C79          H84   1.081       .  S
C79          C80   1.363       .  D
C80        C1277   1.486       .  S
C85          C86   1.544       .  S
C85          C91   1.534       .  S
C85          C89   1.548       .  S
C85        C1245   1.545       .  S
C86          H93   1.081       .  S
C86          C87   1.372       .  D
C87          C88   1.540       .  S
C87        C1274   1.495       .  S
C88          C92   1.529       .  S
C88          C90   1.544       .  S
C88          H94   1.108       .  S
C89          H95   1.083       .  S
C89          C90   1.367       .  D
C90        C1306   1.475       .  S
C91          H96   1.087       .  S
C91          C92   1.355       .  D
C92        C1389   1.480       .  S
C97          C98   1.537       .  S
C97         C103   1.549       .  S
C97         C101   1.540       .  S
C97        C1178   1.544       .  S
C98         H105   1.087       .  S
C98          C99   1.365       .  D
C99         C100   1.537       .  S
C99        C1194   1.495       .  S
C100        C104   1.526       .  S
C100        C102   1.540       .  S
C100        H106   1.110       .  S
C101        H107   1.084       .  S
C101        C102   1.366       .  D
C102       C1210   1.472       .  S
C103        H108   1.080       .  S
C103        C104   1.361       .  D
C104       C1226   1.471       .  S
C109        C110   1.536       .  S
C109        C115   1.538       .  S
C109        C113   1.557       .  S
C109       C1133   1.540       .  S
C110        H117   1.083       .  S
C110        C111   1.362       .  D
C111        C112   1.532       .  S
C111       C1229   1.472       .  S
C112        C116   1.525       .  S
C112        C114   1.536       .  S
C112        H118   1.112       .  S
C113        H119   1.082       .  S
C113        C114   1.372       .  D
C114       C1162   1.474       .  S
C115        H120   1.087       .  S
C115        C116   1.357       .  D
C116       C1146   1.478       .  S
C121        C122   1.545       .  S
C121        C127   1.536       .  S
C121        C125   1.539       .  S
C121       C1085   1.537       .  S
C122        H129   1.082       .  S
C122        C123   1.368       .  D
C123        C124   1.540       .  S
C123       C1114   1.490       .  S
C124        C128   1.528       .  S
C124        C126   1.545       .  S
C124        H130   1.110       .  S
C125        H131   1.083       .  S
C125        C126   1.365       .  D
C126       C1213   1.473       .  S
C127        H132   1.088       .  S
C127        C128   1.355       .  D
C128       C1101   1.479       .  S
C133        C134   1.537       .  S
C133        C139   1.541       .  S
C133        C137   1.544       .  S
C133       C1050   1.541       .  S
C134        H141   1.087       .  S
C134        C135   1.359       .  D
C135        C136   1.528       .  S
C135       C1066   1.485       .  S
C136        C140   1.538       .  S
C136        C138   1.542       .  S
C136        H142   1.110       .  S
C137        H143   1.084       .  S
C137        C138   1.365       .  D
C138       C1165   1.474       .  S
C139        H144   1.079       .  S
C139        C140   1.370       .  D
C140       C1117   1.488       .  S
C145        C146   1.553       .  S
C145        C151   1.536       .  S
C145        C149   1.535       .  S
C145       C1002   1.537       .  S
C146        H153   1.081       .  S
C146        C147   1.371       .  D
C147        C148   1.533       .  S
C147       C1037   1.481       .  S
C148        C152   1.530       .  S
C148        C150   1.541       .  S
C148        H154   1.109       .  S
C149        H155   1.086       .  S
C149        C150   1.364       .  D
C150       C1018   1.471       .  S
C151        H156   1.087       .  S
C151        C152   1.356       .  D
C152       C1197   1.484       .  S
C157        C158   1.536       .  S
C157        C163   1.543       .  S
C157        C161   1.545       .  S
C157        C970   1.543       .  S
C158        H165   1.088       .  S
C158        C159   1.360       .  D
C159        C160   1.533       .  S
C159       C1149   1.487       .  S
C160        C164   1.537       .  S
C160        C162   1.541       .  S
C160        H166   1.111       .  S
C161        H167   1.083       .  S
C161        C162   1.370       .  D
C162        C986   1.481       .  S
C163        H168   1.080       .  S
C163        C164   1.361       .  D
C164       C1034   1.478       .  S
C169        C170   1.546       .  S
C169        C175   1.547       .  S
C169        C173   1.536       .  S
C169        C941   1.533       .  S
C170        H177   1.087       .  S
C170        C171   1.361       .  D
C171        C172   1.534       .  S
C171       C1098   1.485       .  S
C172        C176   1.534       .  S
C172        C174   1.537       .  S
C172        H178   1.112       .  S
C173        H179   1.086       .  S
C173        C174   1.362       .  D
C174       C1021   1.472       .  S
C175        H180   1.082       .  S
C175        C176   1.366       .  D
C176        C957   1.481       .  S
C181        C182   1.555       .  S
C181        C187   1.537       .  S
C181        C185   1.543       .  S
C181        C922   1.547       .  S
C182        H189   1.080       .  S
C182        C183   1.366       .  D
C183        C184   1.535       .  S
C183        C954   1.490       .  S
C184        C188   1.535       .  S
C184        C186   1.537       .  S
C184        H190   1.107       .  S
C185        H191   1.084       .  S
C185        C186   1.366       .  D
C186        C989   1.480       .  S
C187        H192   1.087       .  S
C187        C188   1.361       .  D
C188       C1069   1.485       .  S
O193        C196   1.265       .  A
O193       Cd198   2.487       .  S
C194        O203   1.262       .  A
C194        O199   1.267       .  A
C194        C261   1.471       .  S
O195        C201   1.267       .  A
O195       Cd198   2.474       .  S
C196        O204   1.265       .  A
C196        C214   1.473       .  S
C197        O202   1.263       .  A
C197        O200   1.268       .  A
C197       C1453   1.502       .  S
Cd198       O205   2.440       .  S
Cd198       O204   2.481       .  S
Cd198       O203   2.435       .  S
Cd198       O199   2.525       .  S
Cd198       O202   2.496       .  S
Cd198       O200   2.497       .  S
C201        O205   1.263       .  A
C201       C1782   1.462   1_554  S
O206        C209   1.264   1_554  A
O206       Cd211   2.435       .  S
C207        O216   1.267       .  A
C207        O212   1.264       .  A
C207        C300   1.470       .  S
O208        C214   1.264       .  A
O208       Cd211   2.481       .  S
C209        O217   1.265   1_556  A
C209       C1800   1.459       .  S
C210        O215   1.266       .  A
C210        O213   1.263       .  A
C210        C906   1.484       .  S
Cd211       O218   2.493       .  S
Cd211       O217   2.471       .  S
Cd211       O216   2.501       .  S
Cd211       O212   2.455       .  S
Cd211       O215   2.446       .  S
Cd211       O213   2.475       .  S
C214        O218   1.265       .  A
O219        C222   1.264       .  A
O219       Cd224   2.454       .  S
C220        O229   1.265       .  A
C220        O225   1.262       .  A
C220        C285   1.471       .  S
O221        C227   1.265       .  A
O221       Cd224   2.477       .  S
C222        O230   1.263       .  A
C222       C1761   1.462       .  S
C223        O228   1.268       .  A
C223        O226   1.261       .  A
C223       C1501   1.490       .  S
Cd224       O231   2.479       .  S
Cd224       O230   2.467       .  S
Cd224       O229   2.517       .  S
Cd224       O225   2.462       .  S
Cd224       O228   2.464       .  S
Cd224       O226   2.468       .  S
C227        O231   1.265       .  A
C227        C235   1.469       .  S
O232        C235   1.266       .  A
O232       Cd237   2.480       .  S
C233        O242   1.263       .  A
C233        O238   1.268       .  A
C233        C326   1.470       .  S
O234        C240   1.267       .  A
O234       Cd237   2.471       .  S
C235        O243   1.264       .  A
C236        O241   1.264       .  A
C236        O239   1.267       .  A
C236        C893   1.487       .  S
Cd237       O244   2.425       .  S
Cd237       O243   2.472       .  S
Cd237       O242   2.446       .  S
Cd237       O238   2.506       .  S
Cd237       O241   2.467       .  S
Cd237       O239   2.453       .  S
C240        O244   1.263       .  A
C240       C1769   1.459       .  S
O245        C248   1.267       .  A
O245       Cd250   2.504       .  S
C246        O255   1.262       .  A
C246        O251   1.270       .  A
C246        C311   1.469       .  S
O247        C253   1.267       .  A
O247       Cd250   2.455       .  S
C248        O256   1.265       .  A
C248        C259   1.477       .  S
C249        O254   1.265       .  A
C249        O252   1.267       .  A
C249        C925   1.486       .  S
Cd250       O257   2.428       .  S
Cd250       O256   2.485       .  S
Cd250       O255   2.432       .  S
Cd250       O251   2.513       .  S
Cd250       O254   2.471       .  S
Cd250       O252   2.465       .  S
C253        O257   1.263       .  A
C253       C1834   1.455   1_554  S
O258        C261   1.268       .  A
O258       Cd263   2.535       .  S
C259        O268   1.265       .  A
C259        O264   1.265       .  A
O260        C266   1.264       .  A
O260       Cd263   2.459       .  S
C261        O269   1.261       .  A
C262        O267   1.260       .  A
C262        O265   1.270       .  A
C262       C1293   1.488       .  S
Cd263       O270   2.445       .  S
Cd263       O269   2.430       .  S
Cd263       O268   2.490       .  S
Cd263       O264   2.504       .  S
Cd263       O267   2.434       .  S
Cd263       O265   2.523       .  S
C266        O270   1.265       .  A
C266       C1852   1.459   1_554  S
O271        C274   1.265       .  A
O271       Cd276   2.437       .  S
C272        O281   1.268       .  A
C272        O277   1.262       .  A
C272        C337   1.465       .  S
O273        C279   1.264       .  A
O273       Cd276   2.462       .  S
C274        O282   1.264       .  A
C274       C1813   1.455       .  S
C275        O280   1.269       .  A
C275        O278   1.259       .  A
C275        C938   1.475       .  S
Cd276       O283   2.478       .  S
Cd276       O282   2.444       .  S
Cd276       O281   2.517       .  S
Cd276       O277   2.411       .  S
Cd276       O280   2.487       .  S
Cd276       O278   2.416       .  S
C279        O283   1.264       .  A
C279        C287   1.466       .  S
O284        C287   1.266       .  A
O284       Cd289   2.479       .  S
C285        O294   1.263       .  A
C285        O290   1.267       .  A
O286        C292   1.266       .  A
O286       Cd289   2.464       .  S
C287        O295   1.263       .  A
C288        O293   1.263       .  A
C288        O291   1.268       .  A
C288       C1325   1.493       .  S
Cd289       O296   2.439       .  S
Cd289       O295   2.457       .  S
Cd289       O294   2.450       .  S
Cd289       O290   2.507       .  S
Cd289       O293   2.465       .  S
Cd289       O291   2.470       .  S
C292        O296   1.263       .  A
C292       C1826   1.459       .  S
O297        C300   1.267       .  A
O297       Cd302   2.495       .  S
C298        O307   1.263       .  A
C298        O303   1.265       .  A
C298        C313   1.460       .  S
O299        C305   1.263       .  A
O299       Cd302   2.481       .  S
C300        O308   1.264       .  A
C301        O306   1.265   1_556  A
C301        O304   1.263   1_556  A
C301       C1891   1.455       .  S
Cd302       O309   2.426       .  S
Cd302       O308   2.452       .  S
Cd302       O307   2.446       .  S
Cd302       O303   2.468       .  S
Cd302       O306   2.444       .  S
Cd302       O304   2.439       .  S
C305        O309   1.267       .  A
C305        C874   1.485       .  S
O310        C313   1.265       .  A
O310       Cd315   2.464       .  S
C311        O320   1.263       .  A
C311        O316   1.265       .  A
O312        C318   1.260       .  A
O312       Cd315   2.459       .  S
C313        O321   1.264       .  A
C314        O319   1.263   1_556  A
C314        O317   1.264   1_556  A
C314       C1904   1.455       .  S
Cd315       O322   2.446       .  S
Cd315       O321   2.445       .  S
Cd315       O320   2.449       .  S
Cd315       O316   2.512       .  S
Cd315       O319   2.440       .  S
Cd315       O317   2.444       .  S
C318        O322   1.268       .  A
C318       C1053   1.483       .  S
O323        C326   1.266       .  A
O323       Cd328   2.510       .  S
C324        O333   1.262       .  A
C324        O329   1.265       .  A
C324        C339   1.463       .  S
O325        C331   1.262       .  A
O325       Cd328   2.438       .  S
C326        O334   1.263       .  A
C327        O332   1.261       .  A
C327        O330   1.269       .  A
C327        C858   1.485       .  S
Cd328       O335   2.448       .  S
Cd328       O334   2.450       .  S
Cd328       O333   2.441       .  S
Cd328       O329   2.488       .  S
Cd328       O332   2.431       .  S
Cd328       O330   2.495       .  S
C331        O335   1.264       .  A
C331       C1861   1.455       .  S
O336        C339   1.266       .  A
O336       Cd341   2.482       .  S
C337        O346   1.260       .  A
C337        O342   1.267       .  A
O338        C344   1.264       .  A
O338       Cd341   2.439       .  S
C339        O347   1.263       .  A
C340        O345   1.261       .  A
C340        O343   1.267       .  A
C340       C1082   1.476       .  S
Cd341       O348   2.443       .  S
Cd341       O347   2.438       .  S
Cd341       O346   2.414       .  S
Cd341       O342   2.519       .  S
Cd341       O345   2.439       .  S
Cd341       O343   2.472       .  S
C344        O348   1.265       .  A
C344       C1874   1.455       .  S
O349        C352   1.265       .  A
O349       Cd354   2.505       .  S
C350        O359   1.263       .  A
C350        O355   1.267       .  A
C350        C467   1.472       .  S
O351        C357   1.265       .  A
O351       Cd354   2.462       .  S
C352        O360   1.263       .  A
C352        C370   1.470       .  S
C353        O358   1.261       .  A
C353        O356   1.268       .  A
C353       C1242   1.493       .  S
Cd354       O361   2.453       .  S
Cd354       O360   2.462       .  S
Cd354       O359   2.450       .  S
Cd354       O355   2.516       .  S
Cd354       O358   2.462       .  S
Cd354       O356   2.478       .  S
C357        O361   1.264       .  A
C357       C1936   1.462   1_554  S
O362        C365   1.264       .  A
O362      Cd1927   2.448       .  S
C363        O372   1.267       .  A
C363        O368   1.262       .  A
C363        C415   1.466       .  S
O364        C370   1.264       .  A
O364       Cd367   2.455       .  S
C365       O1933   1.265       .  A
C365        C389   1.459       .  S
C366        O371   1.267       .  A
C366        O369   1.262       .  A
C366        C842   1.486       .  S
Cd367       O374   2.496       .  S
Cd367       O373   2.455       .  S
Cd367       O372   2.508       .  S
Cd367       O368   2.431       .  S
Cd367       O371   2.487       .  S
Cd367       O369   2.444       .  S
Cd367      O1922   2.448       .  S
C370        O374   1.266       .  A
O373       C1925   1.265       .  A
O375        C378   1.263       .  A
O375       Cd380   2.430       .  S
C376        O385   1.265       .  A
C376        O381   1.264       .  A
C376       C1917   1.462       .  S
O377        C383   1.267       .  A
O377       Cd380   2.486       .  S
C378        O386   1.267       .  A
C378        C493   1.470       .  S
C379        O384   1.264       .  A
C379        O382   1.265       .  A
C379        C396   1.470       .  S
Cd380       O387   2.465       .  S
Cd380       O386   2.522       .  S
Cd380       O385   2.466       .  S
Cd380       O381   2.451       .  S
Cd380       O384   2.471       .  S
Cd380       O382   2.485       .  S
C383        O387   1.263       .  A
C383       C1258   1.491       .  S
O388        C391   1.264       .  A
O388       Cd393   2.458       .  S
C389        O398   1.265       .  A
C389        O394   1.264       .  A
O390        C396   1.263       .  A
O390       Cd393   2.474       .  S
C391        O399   1.268       .  A
C391        C443   1.474       .  S
C392        O397   1.267       .  A
C392        O395   1.262       .  A
C392        C829   1.490       .  S
Cd393       O400   2.492       .  S
Cd393       O399   2.513       .  S
Cd393       O398   2.458       .  S
Cd393       O394   2.448       .  S
Cd393       O397   2.428       .  S
Cd393       O395   2.487       .  S
C396        O400   1.265       .  A
O401        C404   1.267       .  A
O401       Cd406   2.504       .  S
C402        O411   1.264       .  A
C402        O407   1.266       .  A
C402        C417   1.466       .  S
O403        C409   1.266       .  A
O403       Cd406   2.458       .  S
C404        O412   1.263       .  A
C404        C456   1.468       .  S
C405        O410   1.263       .  A
C405        O408   1.267       .  A
C405        C973   1.488       .  S
Cd406       O413   2.443       .  S
Cd406       O412   2.440       .  S
Cd406       O411   2.452       .  S
Cd406       O407   2.481       .  S
Cd406       O410   2.455       .  S
Cd406       O408   2.481       .  S
C409        O413   1.263       .  A
C409       C1995   1.458   1_554  S
O414        C417   1.265       .  A
O414       Cd419   2.485       .  S
C415        O424   1.263       .  A
C415        O420   1.267       .  A
O416        C422   1.265       .  A
O416       Cd419   2.470       .  S
C417        O425   1.264       .  A
C418        O423   1.263       .  A
C418        O421   1.268       .  A
C418        C810   1.493       .  S
Cd419       O426   2.465       .  S
Cd419       O425   2.457       .  S
Cd419       O424   2.432       .  S
Cd419       O420   2.503       .  S
Cd419       O423   2.471       .  S
Cd419       O421   2.458       .  S
C422        O426   1.264       .  A
C422       C2008   1.464   1_554  S
O427        C430   1.266       .  A
O427       Cd432   2.498       .  S
C428        O437   1.261       .  A
C428        O433   1.266       .  A
C428        C480   1.470       .  S
O429        C435   1.263       .  A
O429       Cd432   2.446       .  S
C430        O438   1.262       .  A
C430        C441   1.462       .  S
C431        O436   1.260       .  A
C431        O434   1.267       .  A
C431       C1005   1.482       .  S
Cd432       O439   2.452       .  S
Cd432       O438   2.423       .  S
Cd432       O437   2.442       .  S
Cd432       O433   2.525       .  S
Cd432       O436   2.410       .  S
Cd432       O434   2.509       .  S
C435        O439   1.266       .  A
C435       C1969   1.458       .  S
O440        C443   1.266       .  A
O440       Cd445   2.518       .  S
C441        O450   1.262       .  A
C441        O446   1.267       .  A
O442        C448   1.265       .  A
O442       Cd445   2.464       .  S
C443        O451   1.263       .  A
C444        O449   1.262       .  A
C444        O447   1.267       .  A
C444        C794   1.492       .  S
Cd445       O452   2.462       .  S
Cd445       O451   2.463       .  S
Cd445       O450   2.421       .  S
Cd445       O446   2.500       .  S
Cd445       O449   2.442       .  S
Cd445       O447   2.514       .  S
C448        O452   1.265       .  A
C448       C1982   1.464       .  S
O453        C456   1.263       .  A
O453       Cd458   2.444       .  S
C454        O463   1.266   1_556  A
C454        O459   1.263   1_556  A
C454       C2042   1.460       .  S
O455        C461   1.264       .  A
O455       Cd458   2.473       .  S
C456        O464   1.267       .  A
C457        O462   1.268       .  A
C457        O460   1.262       .  A
C457       C1130   1.491       .  S
Cd458       O465   2.483       .  S
Cd458       O464   2.501       .  S
Cd458       O463   2.475       .  S
Cd458       O459   2.433       .  S
Cd458       O462   2.462       .  S
Cd458       O460   2.468       .  S
C461        O465   1.264       .  A
C461        C474   1.469       .  S
O466        C469   1.263   1_554  A
O466       Cd471   2.458       .  S
C467        O476   1.267       .  A
C467        O472   1.262       .  A
O468        C474   1.264       .  A
O468       Cd471   2.469       .  S
C469        O477   1.264   1_556  A
C469       C2060   1.463       .  S
C470        O475   1.268       .  A
C470        O473   1.263       .  A
C470       C1373   1.496       .  S
Cd471       O478   2.487       .  S
Cd471       O477   2.473       .  S
Cd471       O476   2.520       .  S
Cd471       O472   2.450       .  S
Cd471       O475   2.504       .  S
Cd471       O473   2.449       .  S
C474        O478   1.266       .  A
O479        C482   1.264       .  A
O479       Cd484   2.433       .  S
C480        O489   1.268       .  A
C480        O485   1.262       .  A
O481        C487   1.264       .  A
O481       Cd484   2.469       .  S
C482        O490   1.266       .  A
C482       C2014   1.460       .  S
C483        O488   1.267       .  A
C483        O486   1.262       .  A
C483       C1181   1.487       .  S
Cd484       O491   2.500       .  S
Cd484       O490   2.470       .  S
Cd484       O489   2.522       .  S
Cd484       O485   2.436       .  S
Cd484       O488   2.498       .  S
Cd484       O486   2.446       .  S
C487        O491   1.266       .  A
C487        C495   1.472       .  S
O492        C495   1.266       .  A
O492       Cd497   2.504       .  S
C493        O502   1.261       .  A
C493        O498   1.268       .  A
O494        C500   1.266       .  A
O494       Cd497   2.467       .  S
C495        O503   1.263       .  A
C496        O501   1.263       .  A
C496        O499   1.268       .  A
C496       C1405   1.492       .  S
Cd497       O504   2.452       .  S
Cd497       O503   2.468       .  S
Cd497       O502   2.429       .  S
Cd497       O498   2.529       .  S
Cd497       O501   2.455       .  S
Cd497       O499   2.510       .  S
C500        O504   1.264       .  A
C500       C2029   1.463       .  S
C505        C506   1.535       .  S
C505        C511   1.534       .  S
C505        C509   1.555       .  S
C505        C890   1.538       .  S
C506        H513   1.087       .  S
C506        C507   1.363       .  D
C507        C508   1.539       .  S
C507        C778   1.480       .  S
C508        C512   1.535       .  S
C508        C510   1.541       .  S
C508        H514   1.111       .  S
C509        H515   1.082       .  S
C509        C510   1.371       .  D
C510        C762   1.482       .  S
C511        H516   1.087       .  S
C511        C512   1.357       .  D
C512        C746   1.482       .  S
C517        C518   1.537       .  S
C517        C523   1.538       .  S
C517        C521   1.556       .  S
C517        C909   1.543       .  S
C518        H525   1.086       .  S
C518        C519   1.363       .  D
C519        C520   1.530       .  S
C519        C714   1.479       .  S
C520        C524   1.530       .  S
C520        C522   1.537       .  S
C520        H526   1.112       .  S
C521        H527   1.082       .  S
C521        C522   1.373       .  D
C522        C730   1.479       .  S
C523        H528   1.085       .  S
C523        C524   1.361       .  D
C524        C781   1.481       .  S
C529        C530   1.528       .  S
C529        C535   1.553       .  S
C529        C533   1.550       .  S
C529        C797   1.544       .  S
C530        H537   1.088       .  S
C530        C531   1.350       .  D
C531        C532   1.531       .  S
C531        C685   1.484       .  S
C532        C536   1.549       .  S
C532        C534   1.524       .  S
C532        H538   1.101       .  S
C533        H539   1.082       .  S
C533        C534   1.363       .  D
C534        C765   1.471       .  S
C535        H540   1.075       .  S
C535        C536   1.382       .  D
C536        C698   1.513       .  S
C541        C542   1.534       .  S
C541        C547   1.526       .  S
C541        C545   1.559       .  S
C541        C813   1.542       .  S
C542        H549   1.080       .  S
C542        C543   1.376       .  D
C543        C544   1.549       .  S
C543        C701   1.516       .  S
C544        C548   1.534       .  S
C544        C546   1.532       .  S
C544        H550   1.094       .  S
C545        H551   1.082       .  S
C545        C546   1.372       .  D
C546        C733   1.481       .  S
C547        H552   1.087       .  S
C547        C548   1.352       .  D
C548        C666   1.479       .  S
C553        C554   1.540       .  S
C553        C559   1.542       .  S
C553        C557   1.549       .  S
C553        C861   1.545       .  S
C554        H561   1.087       .  S
C554        C555   1.360       .  D
C555        C556   1.529       .  S
C555        C749   1.491       .  S
C556        C560   1.535       .  S
C556        C558   1.534       .  S
C556        H562   1.107       .  S
C557        H563   1.082       .  S
C557        C558   1.370       .  D
C558        C637   1.476       .  S
C559        H564   1.080       .  S
C559        C560   1.363       .  D
C560        C650   1.473       .  S
C565        C566   1.533       .  S
C565        C571   1.532       .  S
C565        C569   1.554       .  S
C565        C877   1.534       .  S
C566        H573   1.084       .  S
C566        C567   1.362       .  D
C567        C568   1.537       .  S
C567        C653   1.485       .  S
C568        C572   1.529       .  S
C568        C570   1.538       .  S
C568        H574   1.110       .  S
C569        H575   1.083       .  S
C569        C570   1.374       .  D
C570        C618   1.475       .  S
C571        H576   1.088       .  S
C571        C572   1.358       .  D
C572        C717   1.480       .  S
C577        C578   1.534       .  S
C577        C583   1.537       .  S
C577        C581   1.558       .  S
C577        C826   1.542       .  S
C578        H585   1.083       .  S
C578        C579   1.361       .  D
C579        C580   1.531       .  S
C579        C602   1.476       .  S
C580        C584   1.529       .  S
C580        C582   1.537       .  S
C580        H586   1.111       .  S
C581        H587   1.083       .  S
C581        C582   1.376       .  D
C582        C634   1.485       .  S
C583        H588   1.087       .  S
C583        C584   1.357       .  D
C584        C682   1.476       .  S
C589        C590   1.540       .  S
C589        C595   1.546       .  S
C589        C593   1.539       .  S
C589        C845   1.544       .  S
C590        H597   1.087       .  S
C590        C591   1.360       .  D
C591        C592   1.537       .  S
C591        C669   1.492       .  S
C592        C596   1.539       .  S
C592        C594   1.543       .  S
C592        H598   1.109       .  S
C593        H599   1.084       .  S
C593        C594   1.366       .  D
C594        C621   1.479       .  S
C595        H600   1.081       .  S
C595        C596   1.366       .  D
C596        C605   1.484       .  S
C601        C602   1.403       .  A
C601        C606   1.410       .  A
C601        H608   1.084       .  S
C602        C603   1.411       .  A
C603        C610   1.504       .  S
C603        C604   1.390       .  A
C604        C605   1.400       .  A
C604        H609   1.085       .  S
C605        C606   1.413       .  A
C606        C607   1.502       .  S
C607        H611   1.108       .  S
C607        H612   1.107       .  S
C607        H613   1.109       .  S
C610        H614   1.104       .  S
C610        H615   1.109       .  S
C610        H616   1.111       .  S
C617        C618   1.401       .  A
C617        C622   1.401   1_565  A
C617        H624   1.084       .  S
C618        C619   1.409       .  A
C619        C626   1.505       .  S
C619        C620   1.406   1_565  A
C620        C621   1.402       .  A
C620        H625   1.082       .  S
C621        C622   1.410       .  A
C622        C623   1.502       .  S
C623        H627   1.111       .  S
C623        H628   1.105       .  S
C623        H629   1.110       .  S
C626        H630   1.105       .  S
C626        H631   1.110       .  S
C626        H632   1.111       .  S
C633        C634   1.405       .  A
C633        C638   1.409   1_545  A
C633        H640   1.084       .  S
C634        C635   1.415       .  A
C635        C642   1.503       .  S
C635        C636   1.398   1_545  A
C636        C637   1.398       .  A
C636        H641   1.084       .  S
C637        C638   1.409       .  A
C638        C639   1.503       .  S
C639        H643   1.111       .  S
C639        H644   1.110       .  S
C639        H645   1.107       .  S
C642        H646   1.108       .  S
C642        H647   1.104       .  S
C642        H648   1.111       .  S
C649        C650   1.398       .  A
C649        C654   1.395       .  A
C649        H656   1.085       .  S
C650        C651   1.405       .  A
C651        C658   1.502       .  S
C651        C652   1.402       .  A
C652        C653   1.405       .  A
C652        H657   1.080       .  S
C653        C654   1.420       .  A
C654        C655   1.507       .  S
C655        H659   1.111       .  S
C655        H660   1.107       .  S
C655        H661   1.105       .  S
C658        H662   1.110       .  S
C658        H663   1.109       .  S
C658        H664   1.109       .  S
C665        C666   1.398       .  A
C665        C670   1.404       .  A
C665        H672   1.082       .  S
C666        C667   1.411       .  A
C667        C674   1.507       .  S
C667        C668   1.402       .  A
C668        C669   1.405       .  A
C668        H673   1.083       .  S
C669        C670   1.416       .  A
C670        C671   1.498       .  S
C671        H675   1.110       .  S
C671        H676   1.108       .  S
C671        H677   1.103       .  S
C674        H678   1.109       .  S
C674        H679   1.108       .  S
C674        H680   1.111       .  S
C681        C682   1.400       .  A
C681        C686   1.403       .  A
C681        H688   1.084       .  S
C682        C683   1.415       .  A
C683        C690   1.508       .  S
C683        C684   1.397       .  A
C684        C685   1.403       .  A
C684        H689   1.085       .  S
C685        C686   1.414       .  A
C686        C687   1.500       .  S
C687        H691   1.110       .  S
C687        H692   1.103       .  S
C687        H693   1.110       .  S
C690        H694   1.106       .  S
C690        H695   1.110       .  S
C690        H696   1.110       .  S
C697        C698   1.404       .  A
C697        C702   1.402       .  A
C697        H704   1.071       .  S
C698        C699   1.414       .  A
C699        C706   1.507       .  S
C699        C700   1.402       .  A
C700        C701   1.414       .  A
C700        H705   1.081       .  S
C701        C702   1.425       .  A
C702        C703   1.507       .  S
C703        H707   1.111       .  S
C703        H708   1.110       .  S
C703        H709   1.103       .  S
C706        H710   1.109       .  S
C706        H711   1.110       .  S
C706        H712   1.111       .  S
C713        C714   1.403       .  A
C713        C718   1.403       .  A
C713        H720   1.083       .  S
C714        C715   1.413       .  A
C715        C722   1.505       .  S
C715        C716   1.395       .  A
C716        C717   1.403       .  A
C716        H721   1.085       .  S
C717        C718   1.410       .  A
C718        C719   1.503       .  S
C719        H723   1.108       .  S
C719        H724   1.106       .  S
C719        H725   1.109       .  S
C722        H726   1.111       .  S
C722        H727   1.103       .  S
C722        H728   1.110       .  S
C729        C730   1.399       .  A
C729        C734   1.403   1_565  A
C729        H736   1.084       .  S
C730        C731   1.415       .  A
C731        C738   1.502       .  S
C731        C732   1.404   1_565  A
C732        C733   1.399       .  A
C732        H737   1.084       .  S
C733        C734   1.414       .  A
C734        C735   1.504       .  S
C735        H739   1.111       .  S
C735        H740   1.102       .  S
C735        H741   1.110       .  S
C738        H742   1.111       .  S
C738        H743   1.107       .  S
C738        H744   1.110       .  S
C745        C746   1.401       .  A
C745        C750   1.407       .  A
C745        H752   1.084       .  S
C746        C747   1.416       .  A
C747        C754   1.509       .  S
C747        C748   1.396       .  A
C748        C749   1.403       .  A
C748        H753   1.085       .  S
C749        C750   1.417       .  A
C750        C751   1.502       .  S
C751        H755   1.107       .  S
C751        H756   1.106       .  S
C751        H757   1.104       .  S
C754        H758   1.104       .  S
C754        H759   1.111       .  S
C754        H760   1.110       .  S
C761        C762   1.403       .  A
C761        C766   1.406   1_565  A
C761        H768   1.083       .  S
C762        C763   1.412       .  A
C763        C770   1.501       .  S
C763        C764   1.399   1_565  A
C764        C765   1.397       .  A
C764        H769   1.085       .  S
C765        C766   1.410       .  A
C766        C767   1.505       .  S
C767        H771   1.111       .  S
C767        H772   1.110       .  S
C767        H773   1.110       .  S
C770        H774   1.109       .  S
C770        H775   1.105       .  S
C770        H776   1.111       .  S
C777        C778   1.400       .  A
C777        C782   1.399       .  A
C777        H784   1.085       .  S
C778        C779   1.414       .  A
C779        C786   1.503       .  S
C779        C780   1.406       .  A
C780        C781   1.402       .  A
C780        H785   1.084       .  S
C781        C782   1.416       .  A
C782        C783   1.507       .  S
C783        H787   1.110       .  S
C783        H788   1.105       .  S
C783        H789   1.110       .  S
C786        H790   1.110       .  S
C786        H791   1.104       .  S
C786        H792   1.111       .  S
C793        C794   1.400       .  A
C793        C798   1.402       .  A
C793        H800   1.084       .  S
C794        C795   1.413       .  A
C795        C802   1.507       .  S
C795        C796   1.409       .  A
C796        C797   1.416       .  A
C796        H801   1.076       .  S
C797        C798   1.430       .  A
C798        C799   1.511       .  S
C799        H803   1.111       .  S
C799        H804   1.107       .  S
C799        H805   1.109       .  S
C802        H806   1.110       .  S
C802        H807   1.110       .  S
C802        H808   1.111       .  S
C809        C810   1.399       .  A
C809        C814   1.400       .  A
C809        H816   1.084       .  S
C810        C811   1.419       .  A
C811        C818   1.508       .  S
C811        C812   1.409       .  A
C812        C813   1.410       .  A
C812        H817   1.077       .  S
C813        C814   1.433       .  A
C814        C815   1.518       .  S
C815        H819   1.111       .  S
C815        H820   1.106       .  S
C815        H821   1.107       .  S
C818        H822   1.110       .  S
C818        H823   1.110       .  S
C818        H824   1.111       .  S
C825        C826   1.412       .  A
C825        C830   1.412       .  A
C825        H832   1.078       .  S
C826        C827   1.433       .  A
C827        C834   1.512       .  S
C827        C828   1.395       .  A
C828        C829   1.394       .  A
C828        H833   1.084       .  S
C829        C830   1.418       .  A
C830        C831   1.507       .  S
C831        H835   1.111       .  S
C831        H836   1.110       .  S
C831        H837   1.110       .  S
C834        H838   1.104       .  S
C834        H839   1.103       .  S
C834        H840   1.111       .  S
C841        C842   1.404       .  A
C841        C846   1.404       .  A
C841        H848   1.084       .  S
C842        C843   1.410       .  A
C843        C850   1.509       .  S
C843        C844   1.404       .  A
C844        C845   1.415       .  A
C844        H849   1.076       .  S
C845        C846   1.426       .  A
C846        C847   1.514       .  S
C847        H851   1.111       .  S
C847        H852   1.107       .  S
C847        H853   1.106       .  S
C850        H854   1.110       .  S
C850        H855   1.109       .  S
C850        H856   1.111       .  S
C857        C858   1.402       .  A
C857        C862   1.404       .  A
C857        H864   1.084       .  S
C858        C859   1.409       .  A
C859        C866   1.509       .  S
C859        C860   1.405       .  A
C860        C861   1.418       .  A
C860        H865   1.073       .  S
C861        C862   1.426       .  A
C862        C863   1.510       .  S
C863        H867   1.111       .  S
C863        H868   1.108       .  S
C863        H869   1.109       .  S
C866        H870   1.110       .  S
C866        H871   1.109       .  S
C866        H872   1.111       .  S
C873        C874   1.394       .  A
C873        C878   1.391       .  A
C873        H880   1.085       .  S
C874        C875   1.417       .  A
C875        C882   1.507       .  S
C875        C876   1.412       .  A
C876        C877   1.411       .  A
C876        H881   1.078       .  S
C877        C878   1.432       .  A
C878        C879   1.513       .  S
C879        H883   1.110       .  S
C879        H884   1.094       .  S
C879        H885   1.111       .  S
C882        H886   1.110       .  S
C882        H887   1.110       .  S
C882        H888   1.110       .  S
C889        C890   1.411       .  A
C889        C894   1.409       .  A
C889        H896   1.077       .  S
C890        C891   1.432       .  A
C891        C898   1.516       .  S
C891        C892   1.398       .  A
C892        C893   1.398       .  A
C892        H897   1.085       .  S
C893        C894   1.415       .  A
C894        C895   1.508       .  S
C895        H899   1.111       .  S
C895        H900   1.111       .  S
C895        H901   1.109       .  S
C898        H902   1.100       .  S
C898        H903   1.110       .  S
C898        H904   1.111       .  S
C905        C906   1.396       .  A
C905        C910   1.399       .  A
C905        H912   1.084       .  S
C906        C907   1.413       .  A
C907        C914   1.507       .  S
C907        C908   1.410       .  A
C908        C909   1.412       .  A
C908        H913   1.077       .  S
C909        C910   1.434       .  A
C910        C911   1.517       .  S
C911        H915   1.111       .  S
C911        H916   1.104       .  S
C911        H917   1.105       .  S
C914        H918   1.110       .  S
C914        H919   1.110       .  S
C914        H920   1.111       .  S
C921        C922   1.414       .  A
C921        C926   1.404       .  A
C921        H928   1.075       .  S
C922        C923   1.428       .  A
C923        C930   1.513       .  S
C923        C924   1.407       .  A
C924        C925   1.402       .  A
C924        H929   1.084       .  S
C925        C926   1.410       .  A
C926        C927   1.509       .  S
C927        H931   1.111       .  S
C927        H932   1.108       .  S
C927        H933   1.110       .  S
C930        H934   1.107       .  S
C930        H935   1.107       .  S
C930        H936   1.111       .  S
C937        C938   1.401       .  A
C937        C942   1.404       .  A
C937        H944   1.085       .  S
C938        C939   1.416       .  A
C939        C946   1.510       .  S
C939        C940   1.399       .  A
C940        C941   1.407       .  A
C940        H945   1.084       .  S
C941        C942   1.420       .  A
C942        C943   1.505       .  S
C943        H947   1.111       .  S
C943        H948   1.110       .  S
C943        H949   1.109       .  S
C946        H950   1.111       .  S
C946        H951   1.110       .  S
C946        H952   1.111       .  S
C953        C954   1.407       .  A
C953        C958   1.405       .  A
C953        H960   1.084       .  S
C954        C955   1.416       .  A
C955        C962   1.505       .  S
C955        C956   1.398       .  A
C956        C957   1.398       .  A
C956        H961   1.080       .  S
C957        C958   1.414       .  A
C958        C959   1.507       .  S
C959        H963   1.110       .  S
C959        H964   1.107       .  S
C959        H965   1.111       .  S
C962        H966   1.105       .  S
C962        H967   1.107       .  S
C962        H968   1.111       .  S
C969        C970   1.415       .  A
C969        C974   1.404       .  A
C969        H976   1.074       .  S
C970        C971   1.425       .  A
C971        C978   1.512       .  S
C971        C972   1.405       .  A
C972        C973   1.403       .  A
C972        H977   1.084       .  S
C973        C974   1.411       .  A
C974        C975   1.509       .  S
C975        H979   1.111       .  S
C975        H980   1.111       .  S
C975        H981   1.109       .  S
C978        H982   1.107       .  S
C978        H983   1.108       .  S
C978        H984   1.111       .  S
C985        C986   1.399       .  A
C985        C990   1.401   1_655  A
C985        H992   1.078       .  S
C986        C987   1.412       .  A
C987        C994   1.504       .  S
C987        C988   1.407   1_655  A
C988        C989   1.403       .  A
C988        H993   1.084       .  S
C989        C990   1.411       .  A
C990        C991   1.505       .  S
C991        H995   1.111       .  S
C991        H996   1.106       .  S
C991        H997   1.110       .  S
C994        H998   1.108       .  S
C994        H999   1.109       .  S
C994       H1000   1.111       .  S
C1001      C1002   1.414       .  A
C1001      C1006   1.408       .  A
C1001      H1008   1.076       .  S
C1002      C1003   1.428       .  A
C1003      C1010   1.512       .  S
C1003      C1004   1.395       .  A
C1004      C1005   1.399       .  A
C1004      H1009   1.085       .  S
C1005      C1006   1.410       .  A
C1006      C1007   1.507       .  S
C1007      H1011   1.111       .  S
C1007      H1012   1.109       .  S
C1007      H1013   1.110       .  S
C1010      H1014   1.111       .  S
C1010      H1015   1.095       .  S
C1010      H1016   1.111       .  S
C1017      C1018   1.399       .  A
C1017      C1022   1.400   1_655  A
C1017      H1024   1.081       .  S
C1018      C1019   1.413       .  A
C1019      C1026   1.507       .  S
C1019      C1020   1.400   1_655  A
C1020      C1021   1.399       .  A
C1020      H1025   1.083       .  S
C1021      C1022   1.409       .  A
C1022      C1023   1.504       .  S
C1023      H1027   1.111       .  S
C1023      H1028   1.110       .  S
C1023      H1029   1.108       .  S
C1026      H1030   1.105       .  S
C1026      H1031   1.111       .  S
C1026      H1032   1.110       .  S
C1033      C1034   1.399       .  A
C1033      C1038   1.402       .  A
C1033      H1040   1.077       .  S
C1034      C1035   1.415       .  A
C1035      C1042   1.511       .  S
C1035      C1036   1.397       .  A
C1036      C1037   1.401       .  A
C1036      H1041   1.081       .  S
C1037      C1038   1.413       .  A
C1038      C1039   1.504       .  S
C1039      H1043   1.111       .  S
C1039      H1044   1.109       .  S
C1039      H1045   1.106       .  S
C1042      H1046   1.108       .  S
C1042      H1047   1.110       .  S
C1042      H1048   1.111       .  S
C1049      C1050   1.414       .  A
C1049      C1054   1.406       .  A
C1049      H1056   1.078       .  S
C1050      C1051   1.433       .  A
C1051      C1058   1.507       .  S
C1051      C1052   1.397       .  A
C1052      C1053   1.392       .  A
C1052      H1057   1.085       .  S
C1053      C1054   1.414       .  A
C1054      C1055   1.508       .  S
C1055      H1059   1.111       .  S
C1055      H1060   1.110       .  S
C1055      H1061   1.110       .  S
C1058      H1062   1.103       .  S
C1058      H1063   1.107       .  S
C1058      H1064   1.111       .  S
C1065      C1066   1.402       .  A
C1065      C1070   1.406       .  A
C1065      H1072   1.079       .  S
C1066      C1067   1.414       .  A
C1067      C1074   1.507       .  S
C1067      C1068   1.397       .  A
C1068      C1069   1.404       .  A
C1068      H1073   1.085       .  S
C1069      C1070   1.413       .  A
C1070      C1071   1.505       .  S
C1071      H1075   1.111       .  S
C1071      H1076   1.107       .  S
C1071      H1077   1.108       .  S
C1074      H1078   1.110       .  S
C1074      H1079   1.106       .  S
C1074      H1080   1.110       .  S
C1081      C1082   1.399       .  A
C1081      C1086   1.403       .  A
C1081      H1088   1.084       .  S
C1082      C1083   1.406       .  A
C1083      C1090   1.508       .  S
C1083      C1084   1.402       .  A
C1084      C1085   1.417       .  A
C1084      H1089   1.076       .  S
C1085      C1086   1.428       .  A
C1086      C1087   1.511       .  S
C1087      H1091   1.111       .  S
C1087      H1092   1.108       .  S
C1087      H1093   1.108       .  S
C1090      H1094   1.109       .  S
C1090      H1095   1.110       .  S
C1090      H1096   1.111       .  S
C1097      C1098   1.401       .  A
C1097      C1102   1.397       .  A
C1097      H1104   1.085       .  S
C1098      C1099   1.415       .  A
C1099      C1106   1.499       .  S
C1099      C1100   1.405       .  A
C1100      C1101   1.401       .  A
C1100      H1105   1.085       .  S
C1101      C1102   1.414       .  A
C1102      C1103   1.504       .  S
C1103      H1107   1.110       .  S
C1103      H1108   1.110       .  S
C1103      H1109   1.104       .  S
C1106      H1110   1.110       .  S
C1106      H1111   1.096       .  S
C1106      H1112   1.108       .  S
C1113      C1114   1.409       .  A
C1113      C1118   1.406       .  A
C1113      H1120   1.082       .  S
C1114      C1115   1.419       .  A
C1115      C1122   1.513       .  S
C1115      C1116   1.393       .  A
C1116      C1117   1.401       .  A
C1116      H1121   1.077       .  S
C1117      C1118   1.412       .  A
C1118      C1119   1.505       .  S
C1119      H1123   1.110       .  S
C1119      H1124   1.111       .  S
C1119      H1125   1.106       .  S
C1122      H1126   1.101       .  S
C1122      H1127   1.111       .  S
C1122      H1128   1.111       .  S
C1129      C1130   1.398       .  A
C1129      C1134   1.400       .  A
C1129      H1136   1.084       .  S
C1130      C1131   1.418       .  A
C1131      C1138   1.508       .  S
C1131      C1132   1.409       .  A
C1132      C1133   1.409       .  A
C1132      H1137   1.077       .  S
C1133      C1134   1.433       .  A
C1134      C1135   1.517       .  S
C1135      H1139   1.111       .  S
C1135      H1140   1.106       .  S
C1135      H1141   1.106       .  S
C1138      H1142   1.111       .  S
C1138      H1143   1.109       .  S
C1138      H1144   1.111       .  S
C1145      C1146   1.402       .  A
C1145      C1150   1.406       .  A
C1145      H1152   1.083       .  S
C1146      C1147   1.412       .  A
C1147      C1154   1.508       .  S
C1147      C1148   1.396       .  A
C1148      C1149   1.405       .  A
C1148      H1153   1.084       .  S
C1149      C1150   1.418       .  A
C1150      C1151   1.505       .  S
C1151      H1155   1.110       .  S
C1151      H1156   1.111       .  S
C1151      H1157   1.101       .  S
C1154      H1158   1.106       .  S
C1154      H1159   1.111       .  S
C1154      H1160   1.110       .  S
C1161      C1162   1.400       .  A
C1161      C1166   1.399   1_655  A
C1161      H1168   1.081       .  S
C1162      C1163   1.408       .  A
C1163      C1170   1.504       .  S
C1163      C1164   1.404   1_655  A
C1164      C1165   1.403       .  A
C1164      H1169   1.084       .  S
C1165      C1166   1.410       .  A
C1166      C1167   1.505       .  S
C1167      H1171   1.110       .  S
C1167      H1172   1.109       .  S
C1167      H1173   1.109       .  S
C1170      H1174   1.104       .  S
C1170      H1175   1.110       .  S
C1170      H1176   1.110       .  S
C1177      C1178   1.415       .  A
C1177      C1182   1.406       .  A
C1177      H1184   1.075       .  S
C1178      C1179   1.425       .  A
C1179      C1186   1.513       .  S
C1179      C1180   1.404       .  A
C1180      C1181   1.403       .  A
C1180      H1185   1.084       .  S
C1181      C1182   1.410       .  A
C1182      C1183   1.508       .  S
C1183      H1187   1.111       .  S
C1183      H1188   1.110       .  S
C1183      H1189   1.109       .  S
C1186      H1190   1.107       .  S
C1186      H1191   1.107       .  S
C1186      H1192   1.111       .  S
C1193      C1194   1.404       .  A
C1193      C1198   1.393       .  A
C1193      H1200   1.085       .  S
C1194      C1195   1.422       .  A
C1195      C1202   1.503       .  S
C1195      C1196   1.409       .  A
C1196      C1197   1.402       .  A
C1196      H1201   1.085       .  S
C1197      C1198   1.415       .  A
C1198      C1199   1.509       .  S
C1199      H1203   1.111       .  S
C1199      H1204   1.110       .  S
C1199      H1205   1.103       .  S
C1202      H1206   1.110       .  S
C1202      H1207   1.096       .  S
C1202      H1208   1.110       .  S
C1209      C1210   1.400       .  A
C1209      C1214   1.401   1_655  A
C1209      H1216   1.083       .  S
C1210      C1211   1.410       .  A
C1211      C1218   1.508       .  S
C1211      C1212   1.404   1_655  A
C1212      C1213   1.401       .  A
C1212      H1217   1.084       .  S
C1213      C1214   1.409       .  A
C1214      C1215   1.506       .  S
C1215      H1219   1.111       .  S
C1215      H1220   1.102       .  S
C1215      H1221   1.110       .  S
C1218      H1222   1.108       .  S
C1218      H1223   1.110       .  S
C1218      H1224   1.110       .  S
C1225      C1226   1.401       .  A
C1225      C1230   1.405       .  A
C1225      H1232   1.083       .  S
C1226      C1227   1.410       .  A
C1227      C1234   1.504       .  S
C1227      C1228   1.394       .  A
C1228      C1229   1.399       .  A
C1228      H1233   1.084       .  S
C1229      C1230   1.410       .  A
C1230      C1231   1.501       .  S
C1231      H1235   1.111       .  S
C1231      H1236   1.109       .  S
C1231      H1237   1.110       .  S
C1234      H1238   1.110       .  S
C1234      H1239   1.106       .  S
C1234      H1240   1.111       .  S
C1241      C1242   1.397       .  A
C1241      C1246   1.402       .  A
C1241      H1248   1.084       .  S
C1242      C1243   1.418       .  A
C1243      C1250   1.509       .  S
C1243      C1244   1.408       .  A
C1244      C1245   1.411       .  A
C1244      H1249   1.077       .  S
C1245      C1246   1.432       .  A
C1246      C1247   1.510       .  S
C1247      H1251   1.111       .  S
C1247      H1252   1.107       .  S
C1247      H1253   1.103       .  S
C1250      H1254   1.110       .  S
C1250      H1255   1.110       .  S
C1250      H1256   1.111       .  S
C1257      C1258   1.405       .  A
C1257      C1262   1.407       .  A
C1257      H1264   1.084       .  S
C1258      C1259   1.411       .  A
C1259      C1266   1.509       .  S
C1259      C1260   1.404       .  A
C1260      C1261   1.415       .  A
C1260      H1265   1.076       .  S
C1261      C1262   1.425       .  A
C1262      C1263   1.512       .  S
C1263      H1267   1.111       .  S
C1263      H1268   1.107       .  S
C1263      H1269   1.108       .  S
C1266      H1270   1.110       .  S
C1266      H1271   1.109       .  S
C1266      H1272   1.111       .  S
C1273      C1274   1.403       .  A
C1273      C1278   1.394       .  A
C1273      H1280   1.080       .  S
C1274      C1275   1.419       .  A
C1275      C1282   1.505       .  S
C1275      C1276   1.410       .  A
C1276      C1277   1.404       .  A
C1276      H1281   1.082       .  S
C1277      C1278   1.414       .  A
C1278      C1279   1.511       .  S
C1279      H1283   1.111       .  S
C1279      H1284   1.110       .  S
C1279      H1285   1.106       .  S
C1282      H1286   1.105       .  S
C1282      H1287   1.106       .  S
C1282      H1288   1.111       .  S
C1289      C1290   1.408       .  A
C1289      C1294   1.402       .  A
C1289      H1296   1.084       .  S
C1290      C1291   1.421       .  A
C1291      C1298   1.505       .  S
C1291      C1292   1.408       .  A
C1292      C1293   1.403       .  A
C1292      H1297   1.084       .  S
C1293      C1294   1.418       .  A
C1294      C1295   1.509       .  S
C1295      H1299   1.111       .  S
C1295      H1300   1.111       .  S
C1295      H1301   1.110       .  S
C1298      H1302   1.110       .  S
C1298      H1303   1.108       .  S
C1298      H1304   1.111       .  S
C1305      C1306   1.402       .  A
C1305      C1310   1.405       .  A
C1305      H1312   1.084       .  S
C1306      C1307   1.408       .  A
C1307      C1314   1.505       .  S
C1307      C1308   1.402       .  A
C1308      C1309   1.401       .  A
C1308      H1313   1.084       .  S
C1309      C1310   1.410       .  A
C1310      C1311   1.507       .  S
C1311      H1315   1.110       .  S
C1311      H1316   1.108       .  S
C1311      H1317   1.110       .  S
C1314      H1318   1.105       .  S
C1314      H1319   1.110       .  S
C1314      H1320   1.111       .  S
C1321      C1322   1.413       .  A
C1321      C1326   1.407       .  A
C1321      H1328   1.079       .  S
C1322      C1323   1.433       .  A
C1323      C1330   1.510       .  S
C1323      C1324   1.403       .  A
C1324      C1325   1.399       .  A
C1324      H1329   1.084       .  S
C1325      C1326   1.417       .  A
C1326      C1327   1.509       .  S
C1327      H1331   1.111       .  S
C1327      H1332   1.111       .  S
C1327      H1333   1.109       .  S
C1330      H1334   1.108       .  S
C1330      H1335   1.108       .  S
C1330      H1336   1.111       .  S
C1337      C1338   1.404       .  A
C1337      C1342   1.408       .  A
C1337      H1344   1.084       .  S
C1338      C1339   1.412       .  A
C1339      C1346   1.505       .  S
C1339      C1340   1.397       .  A
C1340      C1341   1.397       .  A
C1340      H1345   1.084       .  S
C1341      C1342   1.413       .  A
C1342      C1343   1.508       .  S
C1343      H1347   1.111       .  S
C1343      H1348   1.107       .  S
C1343      H1349   1.110       .  S
C1346      H1350   1.111       .  S
C1346      H1351   1.106       .  S
C1346      H1352   1.111       .  S
C1353      C1354   1.398       .  A
C1353      C1358   1.398       .  A
C1353      H1360   1.079       .  S
C1354      C1355   1.410       .  A
C1355      C1362   1.506       .  S
C1355      C1356   1.406       .  A
C1356      C1357   1.409       .  A
C1356      H1361   1.084       .  S
C1357      C1358   1.418       .  A
C1358      C1359   1.508       .  S
C1359      H1363   1.111       .  S
C1359      H1364   1.105       .  S
C1359      H1365   1.104       .  S
C1362      H1366   1.111       .  S
C1362      H1367   1.109       .  S
C1362      H1368   1.110       .  S
C1369      C1370   1.416       .  A
C1369      C1374   1.409       .  A
C1369      H1376   1.073       .  S
C1370      C1371   1.427       .  A
C1371      C1378   1.512       .  S
C1371      C1372   1.405       .  A
C1372      C1373   1.404       .  A
C1372      H1377   1.083       .  S
C1373      C1374   1.414       .  A
C1374      C1375   1.508       .  S
C1375      H1379   1.110       .  S
C1375      H1380   1.111       .  S
C1375      H1381   1.109       .  S
C1378      H1382   1.108       .  S
C1378      H1383   1.107       .  S
C1378      H1384   1.110       .  S
C1385      C1386   1.398       .  A
C1385      C1390   1.393       .  A
C1385      H1392   1.085       .  S
C1386      C1387   1.409       .  A
C1387      C1394   1.501       .  S
C1387      C1388   1.408       .  A
C1388      C1389   1.405       .  A
C1388      H1393   1.084       .  S
C1389      C1390   1.415       .  A
C1390      C1391   1.507       .  S
C1391      H1395   1.111       .  S
C1391      H1396   1.105       .  S
C1391      H1397   1.107       .  S
C1394      H1398   1.109       .  S
C1394      H1399   1.110       .  S
C1394      H1400   1.107       .  S
C1401      C1402   1.417       .  A
C1401      C1406   1.409       .  A
C1401      H1408   1.074       .  S
C1402      C1403   1.428       .  A
C1403      C1410   1.511       .  S
C1403      C1404   1.406       .  A
C1404      C1405   1.402       .  A
C1404      H1409   1.084       .  S
C1405      C1406   1.411       .  A
C1406      C1407   1.508       .  S
C1407      H1411   1.111       .  S
C1407      H1412   1.109       .  S
C1407      H1413   1.110       .  S
C1410      H1414   1.108       .  S
C1410      H1415   1.107       .  S
C1410      H1416   1.111       .  S
C1417      C1418   1.401       .  A
C1417      C1422   1.407       .  A
C1417      H1424   1.084       .  S
C1418      C1419   1.415       .  A
C1419      C1426   1.509       .  S
C1419      C1420   1.396       .  A
C1420      C1421   1.401       .  A
C1420      H1425   1.085       .  S
C1421      C1422   1.418       .  A
C1422      C1423   1.502       .  S
C1423      H1427   1.109       .  S
C1423      H1428   1.110       .  S
C1423      H1429   1.098       .  S
C1426      H1430   1.110       .  S
C1426      H1431   1.107       .  S
C1426      H1432   1.111       .  S
C1433      C1434   1.400       .  A
C1433      C1438   1.398       .  A
C1433      H1440   1.082       .  S
C1434      C1435   1.415       .  A
C1435      C1442   1.506       .  S
C1435      C1436   1.407       .  A
C1436      C1437   1.409       .  A
C1436      H1441   1.084       .  S
C1437      C1438   1.417       .  A
C1438      C1439   1.503       .  S
C1439      H1443   1.111       .  S
C1439      H1444   1.103       .  S
C1439      H1445   1.104       .  S
C1442      H1446   1.108       .  S
C1442      H1447   1.111       .  S
C1442      H1448   1.110       .  S
C1449      C1450   1.411       .  A
C1449      C1454   1.412       .  A
C1449      H1456   1.077       .  S
C1450      C1451   1.433       .  A
C1451      C1458   1.512       .  S
C1451      C1452   1.406       .  A
C1452      C1453   1.400       .  A
C1452      H1457   1.084       .  S
C1453      C1454   1.420       .  A
C1454      C1455   1.508       .  S
C1455      H1459   1.111       .  S
C1455      H1460   1.110       .  S
C1455      H1461   1.110       .  S
C1458      H1462   1.106       .  S
C1458      H1463   1.102       .  S
C1458      H1464   1.111       .  S
C1465      C1466   1.401       .  A
C1465      C1470   1.406       .  A
C1465      H1472   1.084       .  S
C1466      C1467   1.411       .  A
C1467      C1474   1.505       .  S
C1467      C1468   1.396       .  A
C1468      C1469   1.404       .  A
C1468      H1473   1.085       .  S
C1469      C1470   1.416       .  A
C1470      C1471   1.499       .  S
C1471      H1475   1.109       .  S
C1471      H1476   1.110       .  S
C1471      H1477   1.100       .  S
C1474      H1478   1.107       .  S
C1474      H1479   1.111       .  S
C1474      H1480   1.110       .  S
C1481      C1482   1.403       .  A
C1481      C1486   1.407       .  A
C1481      H1488   1.082       .  S
C1482      C1483   1.411       .  A
C1483      C1490   1.504       .  S
C1483      C1484   1.404       .  A
C1484      C1485   1.403       .  A
C1484      H1489   1.085       .  S
C1485      C1486   1.414       .  A
C1486      C1487   1.506       .  S
C1487      H1491   1.110       .  S
C1487      H1492   1.108       .  S
C1487      H1493   1.110       .  S
C1490      H1494   1.110       .  S
C1490      H1495   1.106       .  S
C1490      H1496   1.111       .  S
C1497      C1498   1.409       .  A
C1497      C1502   1.411       .  A
C1497      H1504   1.080       .  S
C1498      C1499   1.436       .  A
C1499      C1506   1.516       .  S
C1499      C1500   1.398       .  A
C1500      C1501   1.395       .  A
C1500      H1505   1.084       .  S
C1501      C1502   1.419       .  A
C1502      C1503   1.507       .  S
C1503      H1507   1.111       .  S
C1503      H1508   1.109       .  S
C1503      H1509   1.110       .  S
C1506      H1510   1.107       .  S
C1506      H1511   1.107       .  S
C1506      H1512   1.111       .  S
C1513      C1514   1.404       .  A
C1513      C1518   1.389       .  A
C1513      H1520   1.084       .  S
C1514      C1515   1.413       .  A
C1515      C1522   1.504       .  S
C1515      C1516   1.409       .  A
C1516      C1517   1.406       .  A
C1516      H1521   1.084       .  S
C1517      C1518   1.414       .  A
C1518      C1519   1.511       .  S
C1519      H1523   1.111       .  S
C1519      H1524   1.110       .  S
C1519      H1525   1.105       .  S
C1522      H1526   1.103       .  S
C1522      H1527   1.108       .  S
C1522      H1528   1.110       .  S
C1529      C1530   1.400       .  A
C1529      C1534   1.403       .  A
C1529      H1536   1.085       .  S
C1530      C1531   1.413       .  A
C1531      C1538   1.506       .  S
C1531      C1532   1.408       .  A
C1532      C1533   1.403       .  A
C1532      H1537   1.083       .  S
C1533      C1534   1.415       .  A
C1534      C1535   1.505       .  S
C1535      H1539   1.110       .  S
C1535      H1540   1.107       .  S
C1535      H1541   1.110       .  S
C1538      H1542   1.110       .  S
C1538      H1543   1.109       .  S
C1538      H1544   1.111       .  S
C1545      C1546   1.408       .  A
C1545      C1550   1.403       .  A
C1545      H1552   1.084       .  S
C1546      C1547   1.417       .  A
C1547      C1554   1.503       .  S
C1547      C1548   1.396       .  A
C1548      C1549   1.399       .  A
C1548      H1553   1.083       .  S
C1549      C1550   1.412       .  A
C1550      C1551   1.506       .  S
C1551      H1555   1.111       .  S
C1551      H1556   1.110       .  S
C1551      H1557   1.109       .  S
C1554      H1558   1.105       .  S
C1554      H1559   1.111       .  S
C1554      H1560   1.103       .  S
C1561      C1562   1.528       .  S
C1561      C1567   1.539       .  S
C1561      C1565   1.554       .  S
C1561      C3058   1.539       .  S
C1562      H1569   1.088       .  S
C1562      C1563   1.355       .  D
C1563      C1564   1.537       .  S
C1563      C3074   1.485       .  S
C1564      C1568   1.536       .  S
C1564      C1566   1.542       .  S
C1564      H1570   1.108       .  S
C1565      H1571   1.084       .  S
C1565      C1566   1.377       .  D
C1566      C3093   1.484       .  S
C1567      H1572   1.082       .  S
C1567      C1568   1.364       .  D
C1568      C3106   1.489       .  S
C1573      C1574   1.542       .  S
C1573      C1579   1.537       .  S
C1573      C1577   1.561       .  S
C1573      C3010   1.551       .  S
C1574      H1581   1.082       .  S
C1574      C1575   1.368       .  D
C1575      C1576   1.533       .  S
C1575      C3109   1.481       .  S
C1576      C1580   1.526       .  S
C1576      C1578   1.529       .  S
C1576      H1582   1.112       .  S
C1577      H1583   1.082       .  S
C1577      C1578   1.373       .  D
C1578      C3045   1.481       .  S
C1579      H1584   1.087       .  S
C1579      C1580   1.359       .  D
C1580      C3026   1.481       .  S
C1585      C1586   1.556       .  S
C1585      C1591   1.535       .  S
C1585      C1589   1.547       .  S
C1585      C2962   1.550       .  S
C1586      H1593   1.080       .  S
C1586      C1587   1.370       .  D
C1587      C1588   1.536       .  S
C1587      C2994   1.488       .  S
C1588      C1592   1.528       .  S
C1588      C1590   1.536       .  S
C1588      H1594   1.112       .  S
C1589      H1595   1.083       .  S
C1589      C1590   1.369       .  D
C1590      C3090   1.482       .  S
C1591      H1596   1.088       .  S
C1591      C1592   1.357       .  D
C1592      C2978   1.481       .  S
C1597      C1598   1.531       .  S
C1597      C1603   1.555       .  S
C1597      C1601   1.548       .  S
C1597      C2930   1.548       .  S
C1598      H1605   1.088       .  S
C1598      C1599   1.354       .  D
C1599      C1600   1.534       .  S
C1599      C2946   1.478       .  S
C1600      C1604   1.541       .  S
C1600      C1602   1.539       .  S
C1600      H1606   1.109       .  S
C1601      H1607   1.083       .  S
C1601      C1602   1.370       .  D
C1602      C3042   1.485       .  S
C1603      H1608   1.080       .  S
C1603      C1604   1.370       .  D
C1604      C2997   1.496       .  S
C1609      C1610   1.545       .  S
C1609      C1615   1.530       .  S
C1609      C1613   1.551       .  S
C1609      C2882   1.543       .  S
C1610      H1617   1.079       .  S
C1610      C1611   1.369       .  D
C1611      C1612   1.536       .  S
C1611      C2917   1.491       .  S
C1612      C1616   1.529       .  S
C1612      C1614   1.536       .  S
C1612      H1618   1.107       .  S
C1613      H1619   1.084       .  S
C1613      C1614   1.368       .  D
C1614      C2898   1.476       .  S
C1615      H1620   1.088       .  S
C1615      C1616   1.357       .  D
C1616      C3077   1.479       .  S
C1621      C1622   1.544       .  S
C1621      C1627   1.548       .  S
C1621      C1625   1.537       .  S
C1621      C2850   1.541       .  S
C1622      H1629   1.087       .  S
C1622      C1623   1.363       .  D
C1623      C1624   1.535       .  S
C1623      C3029   1.488       .  S
C1624      C1628   1.533       .  S
C1624      C1626   1.539       .  S
C1624      H1630   1.111       .  S
C1625      H1631   1.086       .  S
C1625      C1626   1.364       .  D
C1626      C2869   1.474       .  S
C1627      H1632   1.082       .  S
C1627      C1628   1.368       .  D
C1628      C2914   1.483       .  S
C1633      C1634   1.541       .  S
C1633      C1639   1.549       .  S
C1633      C1637   1.541       .  S
C1633      C2821   1.548       .  S
C1634      H1641   1.087       .  S
C1634      C1635   1.363       .  D
C1635      C1636   1.530       .  S
C1635      C2981   1.485       .  S
C1636      C1640   1.531       .  S
C1636      C1638   1.544       .  S
C1636      H1642   1.111       .  S
C1637      H1643   1.084       .  S
C1637      C1638   1.369       .  D
C1638      C2901   1.475       .  S
C1639      H1644   1.081       .  S
C1639      C1640   1.363       .  D
C1640      C2837   1.486       .  S
C1645      C1646   1.544       .  S
C1645      C1651   1.534       .  S
C1645      C1649   1.548       .  S
C1645      C2805   1.545       .  S
C1646      H1653   1.081       .  S
C1646      C1647   1.372       .  D
C1647      C1648   1.540       .  S
C1647      C2834   1.495       .  S
C1648      C1652   1.529       .  S
C1648      C1650   1.544       .  S
C1648      H1654   1.108       .  S
C1649      H1655   1.083       .  S
C1649      C1650   1.367       .  D
C1650      C2866   1.475       .  S
C1651      H1656   1.087       .  S
C1651      C1652   1.355       .  D
C1652      C2949   1.480       .  S
C1657      C1658   1.537       .  S
C1657      C1663   1.549       .  S
C1657      C1661   1.540       .  S
C1657      C2738   1.544       .  S
C1658      H1665   1.087       .  S
C1658      C1659   1.365       .  D
C1659      C1660   1.537       .  S
C1659      C2754   1.495       .  S
C1660      C1664   1.526       .  S
C1660      C1662   1.540       .  S
C1660      H1666   1.110       .  S
C1661      H1667   1.084       .  S
C1661      C1662   1.366       .  D
C1662      C2770   1.472       .  S
C1663      H1668   1.081       .  S
C1663      C1664   1.361       .  D
C1664      C2786   1.471       .  S
C1669      C1670   1.536       .  S
C1669      C1675   1.538       .  S
C1669      C1673   1.557       .  S
C1669      C2693   1.540       .  S
C1670      H1677   1.083       .  S
C1670      C1671   1.362       .  D
C1671      C1672   1.532       .  S
C1671      C2789   1.472       .  S
C1672      C1676   1.525       .  S
C1672      C1674   1.536       .  S
C1672      H1678   1.112       .  S
C1673      H1679   1.082       .  S
C1673      C1674   1.372       .  D
C1674      C2722   1.474       .  S
C1675      H1680   1.087       .  S
C1675      C1676   1.357       .  D
C1676      C2706   1.478       .  S
C1681      C1682   1.545       .  S
C1681      C1687   1.536       .  S
C1681      C1685   1.539       .  S
C1681      C2645   1.537       .  S
C1682      H1689   1.082       .  S
C1682      C1683   1.368       .  D
C1683      C1684   1.540       .  S
C1683      C2674   1.490       .  S
C1684      C1688   1.528       .  S
C1684      C1686   1.545       .  S
C1684      H1690   1.111       .  S
C1685      H1691   1.083       .  S
C1685      C1686   1.365       .  D
C1686      C2773   1.473       .  S
C1687      H1692   1.088       .  S
C1687      C1688   1.355       .  D
C1688      C2661   1.479       .  S
C1693      C1694   1.537       .  S
C1693      C1699   1.541       .  S
C1693      C1697   1.544       .  S
C1693      C2610   1.541       .  S
C1694      H1701   1.087       .  S
C1694      C1695   1.359       .  D
C1695      C1696   1.528       .  S
C1695      C2626   1.485       .  S
C1696      C1700   1.538       .  S
C1696      C1698   1.542       .  S
C1696      H1702   1.110       .  S
C1697      H1703   1.084       .  S
C1697      C1698   1.365       .  D
C1698      C2725   1.474       .  S
C1699      H1704   1.079       .  S
C1699      C1700   1.370       .  D
C1700      C2677   1.488       .  S
C1705      C1706   1.553       .  S
C1705      C1711   1.536       .  S
C1705      C1709   1.535       .  S
C1705      C2562   1.537       .  S
C1706      H1713   1.081       .  S
C1706      C1707   1.371       .  D
C1707      C1708   1.533       .  S
C1707      C2597   1.481       .  S
C1708      C1712   1.530       .  S
C1708      C1710   1.541       .  S
C1708      H1714   1.109       .  S
C1709      H1715   1.086       .  S
C1709      C1710   1.364       .  D
C1710      C2578   1.471       .  S
C1711      H1716   1.087       .  S
C1711      C1712   1.356       .  D
C1712      C2757   1.484       .  S
C1717      C1718   1.536       .  S
C1717      C1723   1.543       .  S
C1717      C1721   1.545       .  S
C1717      C2530   1.543       .  S
C1718      H1725   1.088       .  S
C1718      C1719   1.360       .  D
C1719      C1720   1.533       .  S
C1719      C2709   1.487       .  S
C1720      C1724   1.537       .  S
C1720      C1722   1.541       .  S
C1720      H1726   1.111       .  S
C1721      H1727   1.083       .  S
C1721      C1722   1.370       .  D
C1722      C2546   1.481       .  S
C1723      H1728   1.080       .  S
C1723      C1724   1.361       .  D
C1724      C2594   1.478       .  S
C1729      C1730   1.546       .  S
C1729      C1735   1.547       .  S
C1729      C1733   1.536       .  S
C1729      C2501   1.533       .  S
C1730      H1737   1.087       .  S
C1730      C1731   1.361       .  D
C1731      C1732   1.534       .  S
C1731      C2658   1.485       .  S
C1732      C1736   1.534       .  S
C1732      C1734   1.537       .  S
C1732      H1738   1.112       .  S
C1733      H1739   1.086       .  S
C1733      C1734   1.362       .  D
C1734      C2581   1.472       .  S
C1735      H1740   1.082       .  S
C1735      C1736   1.366       .  D
C1736      C2517   1.481       .  S
C1741      C1742   1.555       .  S
C1741      C1747   1.537       .  S
C1741      C1745   1.543       .  S
C1741      C2482   1.547       .  S
C1742      H1749   1.080       .  S
C1742      C1743   1.366       .  D
C1743      C1744   1.535       .  S
C1743      C2514   1.490       .  S
C1744      C1748   1.535       .  S
C1744      C1746   1.537       .  S
C1744      H1750   1.107       .  S
C1745      H1751   1.084       .  S
C1745      C1746   1.366       .  D
C1746      C2549   1.480       .  S
C1747      H1752   1.087       .  S
C1747      C1748   1.361       .  D
C1748      C2629   1.485       .  S
O1753      C1756   1.265       .  A
O1753     Cd1758   2.487       .  S
C1754      O1763   1.262       .  A
C1754      O1759   1.267       .  A
C1754      C1821   1.471       .  S
O1755      C1761   1.267       .  A
O1755     Cd1758   2.474       .  S
C1756      O1764   1.265       .  A
C1756      C1774   1.473       .  S
C1757      O1762   1.263       .  A
C1757      O1760   1.268       .  A
C1757      C3013   1.502       .  S
Cd1758     O1765   2.440       .  S
Cd1758     O1764   2.481       .  S
Cd1758     O1763   2.435       .  S
Cd1758     O1759   2.525       .  S
Cd1758     O1762   2.496       .  S
Cd1758     O1760   2.497       .  S
C1761      O1765   1.263       .  A
O1766      C1769   1.264       .  A
O1766     Cd1771   2.435       .  S
C1767      O1776   1.267       .  A
C1767      O1772   1.264       .  A
C1767      C1860   1.470       .  S
O1768      C1774   1.264       .  A
O1768     Cd1771   2.481       .  S
C1769      O1777   1.265       .  A
C1770      O1775   1.266       .  A
C1770      O1773   1.263       .  A
C1770      C2466   1.484       .  S
Cd1771     O1778   2.493       .  S
Cd1771     O1777   2.471       .  S
Cd1771     O1776   2.501       .  S
Cd1771     O1772   2.455       .  S
Cd1771     O1775   2.446       .  S
Cd1771     O1773   2.475       .  S
C1774      O1778   1.265       .  A
O1779      C1782   1.264       .  A
O1779     Cd1784   2.454       .  S
C1780      O1789   1.265       .  A
C1780      O1785   1.262       .  A
C1780      C1845   1.471       .  S
O1781      C1787   1.265       .  A
O1781     Cd1784   2.477       .  S
C1782      O1790   1.263       .  A
C1783      O1788   1.268       .  A
C1783      O1786   1.261       .  A
C1783      C3061   1.490       .  S
Cd1784     O1791   2.479       .  S
Cd1784     O1790   2.467       .  S
Cd1784     O1789   2.517       .  S
Cd1784     O1785   2.462       .  S
Cd1784     O1788   2.464       .  S
Cd1784     O1786   2.468       .  S
C1787      O1791   1.265       .  A
C1787      C1795   1.469       .  S
O1792      C1795   1.266       .  A
O1792     Cd1797   2.480       .  S
C1793      O1802   1.263       .  A
C1793      O1798   1.268       .  A
C1793      C1886   1.470       .  S
O1794      C1800   1.267       .  A
O1794     Cd1797   2.471       .  S
C1795      O1803   1.264       .  A
C1796      O1801   1.264       .  A
C1796      O1799   1.267       .  A
C1796      C2453   1.487       .  S
Cd1797     O1804   2.425       .  S
Cd1797     O1803   2.472       .  S
Cd1797     O1802   2.446       .  S
Cd1797     O1798   2.506       .  S
Cd1797     O1801   2.467       .  S
Cd1797     O1799   2.453       .  S
C1800      O1804   1.263       .  A
O1805      C1808   1.267       .  A
O1805     Cd1810   2.504       .  S
C1806      O1815   1.262       .  A
C1806      O1811   1.270       .  A
C1806      C1871   1.469       .  S
O1807      C1813   1.267       .  A
O1807     Cd1810   2.455       .  S
C1808      O1816   1.265       .  A
C1808      C1819   1.477       .  S
C1809      O1814   1.265       .  A
C1809      O1812   1.267       .  A
C1809      C2485   1.486       .  S
Cd1810     O1817   2.428       .  S
Cd1810     O1816   2.485       .  S
Cd1810     O1815   2.432       .  S
Cd1810     O1811   2.513       .  S
Cd1810     O1814   2.471       .  S
Cd1810     O1812   2.465       .  S
C1813      O1817   1.263       .  A
O1818      C1821   1.268       .  A
O1818     Cd1823   2.535       .  S
C1819      O1828   1.265       .  A
C1819      O1824   1.265       .  A
O1820      C1826   1.264       .  A
O1820     Cd1823   2.459       .  S
C1821      O1829   1.261       .  A
C1822      O1827   1.260       .  A
C1822      O1825   1.270       .  A
C1822      C2853   1.488       .  S
Cd1823     O1830   2.445       .  S
Cd1823     O1829   2.430       .  S
Cd1823     O1828   2.490       .  S
Cd1823     O1824   2.504       .  S
Cd1823     O1827   2.434       .  S
Cd1823     O1825   2.523       .  S
C1826      O1830   1.265       .  A
O1831      C1834   1.265       .  A
O1831     Cd1836   2.437       .  S
C1832      O1841   1.268       .  A
C1832      O1837   1.262       .  A
C1832      C1897   1.465       .  S
O1833      C1839   1.264       .  A
O1833     Cd1836   2.462       .  S
C1834      O1842   1.264       .  A
C1835      O1840   1.269       .  A
C1835      O1838   1.259       .  A
C1835      C2498   1.475       .  S
Cd1836     O1843   2.478       .  S
Cd1836     O1842   2.444       .  S
Cd1836     O1841   2.517       .  S
Cd1836     O1837   2.411       .  S
Cd1836     O1840   2.487       .  S
Cd1836     O1838   2.416       .  S
C1839      O1843   1.264       .  A
C1839      C1847   1.466       .  S
O1844      C1847   1.266       .  A
O1844     Cd1849   2.479       .  S
C1845      O1854   1.263       .  A
C1845      O1850   1.267       .  A
O1846      C1852   1.266       .  A
O1846     Cd1849   2.464       .  S
C1847      O1855   1.263       .  A
C1848      O1853   1.263       .  A
C1848      O1851   1.268       .  A
C1848      C2885   1.493       .  S
Cd1849     O1856   2.439       .  S
Cd1849     O1855   2.457       .  S
Cd1849     O1854   2.450       .  S
Cd1849     O1850   2.507       .  S
Cd1849     O1853   2.465       .  S
Cd1849     O1851   2.470       .  S
C1852      O1856   1.263       .  A
O1857      C1860   1.267       .  A
O1857     Cd1862   2.495       .  S
C1858      O1867   1.263       .  A
C1858      O1863   1.265       .  A
C1858      C1873   1.460       .  S
O1859      C1865   1.263       .  A
O1859     Cd1862   2.481       .  S
C1860      O1868   1.264       .  A
C1861      O1866   1.265       .  A
C1861      O1864   1.263       .  A
Cd1862     O1869   2.426       .  S
Cd1862     O1868   2.452       .  S
Cd1862     O1867   2.446       .  S
Cd1862     O1863   2.468       .  S
Cd1862     O1866   2.444       .  S
Cd1862     O1864   2.439       .  S
C1865      O1869   1.267       .  A
C1865      C2434   1.485       .  S
O1870      C1873   1.265       .  A
O1870     Cd1875   2.464       .  S
C1871      O1880   1.263       .  A
C1871      O1876   1.265       .  A
O1872      C1878   1.260       .  A
O1872     Cd1875   2.459       .  S
C1873      O1881   1.264       .  A
C1874      O1879   1.263       .  A
C1874      O1877   1.264       .  A
Cd1875     O1882   2.446       .  S
Cd1875     O1881   2.445       .  S
Cd1875     O1880   2.449       .  S
Cd1875     O1876   2.512       .  S
Cd1875     O1879   2.440       .  S
Cd1875     O1877   2.444       .  S
C1878      O1882   1.268       .  A
C1878      C2613   1.483       .  S
O1883      C1886   1.266       .  A
O1883     Cd1888   2.510       .  S
C1884      O1893   1.262       .  A
C1884      O1889   1.265       .  A
C1884      C1899   1.463       .  S
O1885      C1891   1.262       .  A
O1885     Cd1888   2.438       .  S
C1886      O1894   1.263       .  A
C1887      O1892   1.261       .  A
C1887      O1890   1.269       .  A
C1887      C2418   1.485       .  S
Cd1888     O1895   2.448       .  S
Cd1888     O1894   2.450       .  S
Cd1888     O1893   2.441       .  S
Cd1888     O1889   2.488       .  S
Cd1888     O1892   2.431       .  S
Cd1888     O1890   2.495       .  S
C1891      O1895   1.264       .  A
O1896      C1899   1.266       .  A
O1896     Cd1901   2.482       .  S
C1897      O1906   1.260       .  A
C1897      O1902   1.267       .  A
O1898      C1904   1.264       .  A
O1898     Cd1901   2.439       .  S
C1899      O1907   1.263       .  A
C1900      O1905   1.261       .  A
C1900      O1903   1.267       .  A
C1900      C2642   1.476       .  S
Cd1901     O1908   2.443       .  S
Cd1901     O1907   2.438       .  S
Cd1901     O1906   2.414       .  S
Cd1901     O1902   2.519       .  S
Cd1901     O1905   2.439       .  S
Cd1901     O1903   2.472       .  S
C1904      O1908   1.265       .  A
O1909      C1912   1.265       .  A
O1909     Cd1914   2.505       .  S
C1910      O1919   1.263       .  A
C1910      O1915   1.267       .  A
C1910      C2027   1.472       .  S
O1911      C1917   1.265       .  A
O1911     Cd1914   2.462       .  S
C1912      O1920   1.263       .  A
C1912      C1930   1.470       .  S
C1913      O1918   1.261       .  A
C1913      O1916   1.268       .  A
C1913      C2802   1.493       .  S
Cd1914     O1921   2.453       .  S
Cd1914     O1920   2.462       .  S
Cd1914     O1919   2.450       .  S
Cd1914     O1915   2.516       .  S
Cd1914     O1918   2.462       .  S
Cd1914     O1916   2.478       .  S
C1917      O1921   1.264       .  A
O1922      C1925   1.264       .  A
C1923      O1932   1.267       .  A
C1923      O1928   1.262       .  A
C1923      C1975   1.466       .  S
O1924      C1930   1.264       .  A
O1924     Cd1927   2.455       .  S
C1925      C1949   1.459   1_554  S
C1926      O1931   1.267       .  A
C1926      O1929   1.262       .  A
C1926      C2402   1.486       .  S
Cd1927     O1934   2.496       .  S
Cd1927     O1933   2.455       .  S
Cd1927     O1932   2.508       .  S
Cd1927     O1928   2.431       .  S
Cd1927     O1931   2.487       .  S
Cd1927     O1929   2.444       .  S
C1930      O1934   1.266       .  A
O1935      C1938   1.263       .  A
O1935     Cd1940   2.430       .  S
C1936      O1945   1.265       .  A
C1936      O1941   1.264       .  A
O1937      C1943   1.267       .  A
O1937     Cd1940   2.486       .  S
C1938      O1946   1.267       .  A
C1938      C2053   1.470       .  S
C1939      O1944   1.264       .  A
C1939      O1942   1.265       .  A
C1939      C1956   1.470       .  S
Cd1940     O1947   2.465       .  S
Cd1940     O1946   2.522       .  S
Cd1940     O1945   2.466       .  S
Cd1940     O1941   2.451       .  S
Cd1940     O1944   2.471       .  S
Cd1940     O1942   2.485       .  S
C1943      O1947   1.263       .  A
C1943      C2818   1.491       .  S
O1948      C1951   1.264       .  A
O1948     Cd1953   2.458       .  S
C1949      O1958   1.265       .  A
C1949      O1954   1.264       .  A
O1950      C1956   1.263       .  A
O1950     Cd1953   2.474       .  S
C1951      O1959   1.268       .  A
C1951      C2003   1.474       .  S
C1952      O1957   1.267       .  A
C1952      O1955   1.262       .  A
C1952      C2389   1.490       .  S
Cd1953     O1960   2.492       .  S
Cd1953     O1959   2.513       .  S
Cd1953     O1958   2.458       .  S
Cd1953     O1954   2.448       .  S
Cd1953     O1957   2.428       .  S
Cd1953     O1955   2.487       .  S
C1956      O1960   1.265       .  A
O1961      C1964   1.267       .  A
O1961     Cd1966   2.504       .  S
C1962      O1971   1.264       .  A
C1962      O1967   1.266       .  A
C1962      C1977   1.466       .  S
O1963      C1969   1.266       .  A
O1963     Cd1966   2.458       .  S
C1964      O1972   1.263       .  A
C1964      C2016   1.468       .  S
C1965      O1970   1.263       .  A
C1965      O1968   1.267       .  A
C1965      C2533   1.488       .  S
Cd1966     O1973   2.443       .  S
Cd1966     O1972   2.440       .  S
Cd1966     O1971   2.452       .  S
Cd1966     O1967   2.481       .  S
Cd1966     O1970   2.455       .  S
Cd1966     O1968   2.481       .  S
C1969      O1973   1.263       .  A
O1974      C1977   1.265       .  A
O1974     Cd1979   2.485       .  S
C1975      O1984   1.263       .  A
C1975      O1980   1.267       .  A
O1976      C1982   1.265       .  A
O1976     Cd1979   2.470       .  S
C1977      O1985   1.264       .  A
C1978      O1983   1.263       .  A
C1978      O1981   1.268       .  A
C1978      C2370   1.493       .  S
Cd1979     O1986   2.465       .  S
Cd1979     O1985   2.457       .  S
Cd1979     O1984   2.432       .  S
Cd1979     O1980   2.503       .  S
Cd1979     O1983   2.471       .  S
Cd1979     O1981   2.458       .  S
C1982      O1986   1.264       .  A
O1987      C1990   1.266       .  A
O1987     Cd1992   2.498       .  S
C1988      O1997   1.261       .  A
C1988      O1993   1.266       .  A
C1988      C2040   1.470       .  S
O1989      C1995   1.263       .  A
O1989     Cd1992   2.446       .  S
C1990      O1998   1.262       .  A
C1990      C2001   1.462       .  S
C1991      O1996   1.260       .  A
C1991      O1994   1.267       .  A
C1991      C2565   1.482       .  S
Cd1992     O1999   2.452       .  S
Cd1992     O1998   2.423       .  S
Cd1992     O1997   2.442       .  S
Cd1992     O1993   2.525       .  S
Cd1992     O1996   2.410       .  S
Cd1992     O1994   2.509       .  S
C1995      O1999   1.266       .  A
O2000      C2003   1.266       .  A
O2000     Cd2005   2.518       .  S
C2001      O2010   1.262       .  A
C2001      O2006   1.267       .  A
O2002      C2008   1.265       .  A
O2002     Cd2005   2.464       .  S
C2003      O2011   1.263       .  A
C2004      O2009   1.262       .  A
C2004      O2007   1.267       .  A
C2004      C2354   1.492       .  S
Cd2005     O2012   2.462       .  S
Cd2005     O2011   2.463       .  S
Cd2005     O2010   2.421       .  S
Cd2005     O2006   2.500       .  S
Cd2005     O2009   2.442       .  S
Cd2005     O2007   2.514       .  S
C2008      O2012   1.265       .  A
O2013      C2016   1.263       .  A
O2013     Cd2018   2.444       .  S
C2014      O2023   1.266       .  A
C2014      O2019   1.263       .  A
O2015      C2021   1.264       .  A
O2015     Cd2018   2.473       .  S
C2016      O2024   1.267       .  A
C2017      O2022   1.268       .  A
C2017      O2020   1.262       .  A
C2017      C2690   1.491       .  S
Cd2018     O2025   2.483       .  S
Cd2018     O2024   2.501       .  S
Cd2018     O2023   2.475       .  S
Cd2018     O2019   2.433       .  S
Cd2018     O2022   2.462       .  S
Cd2018     O2020   2.468       .  S
C2021      O2025   1.264       .  A
C2021      C2034   1.469       .  S
O2026      C2029   1.263       .  A
O2026     Cd2031   2.458       .  S
C2027      O2036   1.267       .  A
C2027      O2032   1.262       .  A
O2028      C2034   1.264       .  A
O2028     Cd2031   2.469       .  S
C2029      O2037   1.264       .  A
C2030      O2035   1.268       .  A
C2030      O2033   1.263       .  A
C2030      C2933   1.496       .  S
Cd2031     O2038   2.487       .  S
Cd2031     O2037   2.473       .  S
Cd2031     O2036   2.520       .  S
Cd2031     O2032   2.450       .  S
Cd2031     O2035   2.504       .  S
Cd2031     O2033   2.449       .  S
C2034      O2038   1.266       .  A
O2039      C2042   1.264       .  A
O2039     Cd2044   2.433       .  S
C2040      O2049   1.268       .  A
C2040      O2045   1.262       .  A
O2041      C2047   1.264       .  A
O2041     Cd2044   2.469       .  S
C2042      O2050   1.266       .  A
C2043      O2048   1.267       .  A
C2043      O2046   1.262       .  A
C2043      C2741   1.487       .  S
Cd2044     O2051   2.500       .  S
Cd2044     O2050   2.470       .  S
Cd2044     O2049   2.522       .  S
Cd2044     O2045   2.436       .  S
Cd2044     O2048   2.498       .  S
Cd2044     O2046   2.446       .  S
C2047      O2051   1.266       .  A
C2047      C2055   1.472       .  S
O2052      C2055   1.266       .  A
O2052     Cd2057   2.504       .  S
C2053      O2062   1.261       .  A
C2053      O2058   1.268       .  A
O2054      C2060   1.266       .  A
O2054     Cd2057   2.467       .  S
C2055      O2063   1.263       .  A
C2056      O2061   1.263       .  A
C2056      O2059   1.268       .  A
C2056      C2965   1.492       .  S
Cd2057     O2064   2.452       .  S
Cd2057     O2063   2.468       .  S
Cd2057     O2062   2.429       .  S
Cd2057     O2058   2.529       .  S
Cd2057     O2061   2.455       .  S
Cd2057     O2059   2.510       .  S
C2060      O2064   1.264       .  A
C2065      C2066   1.535       .  S
C2065      C2071   1.534       .  S
C2065      C2069   1.555       .  S
C2065      C2450   1.538       .  S
C2066      H2073   1.087       .  S
C2066      C2067   1.363       .  D
C2067      C2068   1.539       .  S
C2067      C2338   1.480       .  S
C2068      C2072   1.535       .  S
C2068      C2070   1.541       .  S
C2068      H2074   1.111       .  S
C2069      H2075   1.082       .  S
C2069      C2070   1.371       .  D
C2070      C2322   1.482       .  S
C2071      H2076   1.087       .  S
C2071      C2072   1.357       .  D
C2072      C2306   1.482       .  S
C2077      C2078   1.537       .  S
C2077      C2083   1.538       .  S
C2077      C2081   1.556       .  S
C2077      C2469   1.543       .  S
C2078      H2085   1.086       .  S
C2078      C2079   1.363       .  D
C2079      C2080   1.530       .  S
C2079      C2274   1.479       .  S
C2080      C2084   1.530       .  S
C2080      C2082   1.537       .  S
C2080      H2086   1.112       .  S
C2081      H2087   1.082       .  S
C2081      C2082   1.373       .  D
C2082      C2290   1.479       .  S
C2083      H2088   1.085       .  S
C2083      C2084   1.361       .  D
C2084      C2341   1.481       .  S
C2089      C2090   1.528       .  S
C2089      C2095   1.553       .  S
C2089      C2093   1.550       .  S
C2089      C2357   1.544       .  S
C2090      H2097   1.088       .  S
C2090      C2091   1.350       .  D
C2091      C2092   1.531       .  S
C2091      C2245   1.484       .  S
C2092      C2096   1.549       .  S
C2092      C2094   1.524       .  S
C2092      H2098   1.101       .  S
C2093      H2099   1.082       .  S
C2093      C2094   1.363       .  D
C2094      C2325   1.471       .  S
C2095      H2100   1.075       .  S
C2095      C2096   1.382       .  D
C2096      C2258   1.513       .  S
C2101      C2102   1.534       .  S
C2101      C2107   1.526       .  S
C2101      C2105   1.559       .  S
C2101      C2373   1.542       .  S
C2102      H2109   1.080       .  S
C2102      C2103   1.376       .  D
C2103      C2104   1.549       .  S
C2103      C2261   1.516       .  S
C2104      C2108   1.534       .  S
C2104      C2106   1.532       .  S
C2104      H2110   1.094       .  S
C2105      H2111   1.082       .  S
C2105      C2106   1.372       .  D
C2106      C2293   1.481       .  S
C2107      H2112   1.087       .  S
C2107      C2108   1.352       .  D
C2108      C2226   1.479       .  S
C2113      C2114   1.540       .  S
C2113      C2119   1.542       .  S
C2113      C2117   1.549       .  S
C2113      C2421   1.545       .  S
C2114      H2121   1.088       .  S
C2114      C2115   1.360       .  D
C2115      C2116   1.529       .  S
C2115      C2309   1.491       .  S
C2116      C2120   1.535       .  S
C2116      C2118   1.534       .  S
C2116      H2122   1.107       .  S
C2117      H2123   1.082       .  S
C2117      C2118   1.370       .  D
C2118      C2197   1.476       .  S
C2119      H2124   1.080       .  S
C2119      C2120   1.363       .  D
C2120      C2210   1.473       .  S
C2125      C2126   1.533       .  S
C2125      C2131   1.532       .  S
C2125      C2129   1.554       .  S
C2125      C2437   1.534       .  S
C2126      H2133   1.084       .  S
C2126      C2127   1.362       .  D
C2127      C2128   1.537       .  S
C2127      C2213   1.485       .  S
C2128      C2132   1.529       .  S
C2128      C2130   1.538       .  S
C2128      H2134   1.109       .  S
C2129      H2135   1.083       .  S
C2129      C2130   1.374       .  D
C2130      C2178   1.475       .  S
C2131      H2136   1.088       .  S
C2131      C2132   1.358       .  D
C2132      C2277   1.480       .  S
C2137      C2138   1.534       .  S
C2137      C2143   1.537       .  S
C2137      C2141   1.558       .  S
C2137      C2386   1.542       .  S
C2138      H2145   1.083       .  S
C2138      C2139   1.361       .  D
C2139      C2140   1.531       .  S
C2139      C2162   1.476       .  S
C2140      C2144   1.529       .  S
C2140      C2142   1.537       .  S
C2140      H2146   1.111       .  S
C2141      H2147   1.083       .  S
C2141      C2142   1.376       .  D
C2142      C2194   1.485       .  S
C2143      H2148   1.087       .  S
C2143      C2144   1.358       .  D
C2144      C2242   1.476       .  S
C2149      C2150   1.540       .  S
C2149      C2155   1.546       .  S
C2149      C2153   1.539       .  S
C2149      C2405   1.544       .  S
C2150      H2157   1.087       .  S
C2150      C2151   1.360       .  D
C2151      C2152   1.537       .  S
C2151      C2229   1.492       .  S
C2152      C2156   1.539       .  S
C2152      C2154   1.543       .  S
C2152      H2158   1.109       .  S
C2153      H2159   1.084       .  S
C2153      C2154   1.366       .  D
C2154      C2181   1.479       .  S
C2155      H2160   1.081       .  S
C2155      C2156   1.366       .  D
C2156      C2165   1.484       .  S
C2161      C2162   1.403       .  A
C2161      C2166   1.410       .  A
C2161      H2168   1.084       .  S
C2162      C2163   1.411       .  A
C2163      C2170   1.504       .  S
C2163      C2164   1.390       .  A
C2164      C2165   1.400       .  A
C2164      H2169   1.085       .  S
C2165      C2166   1.413       .  A
C2166      C2167   1.502       .  S
C2167      H2171   1.108       .  S
C2167      H2172   1.107       .  S
C2167      H2173   1.109       .  S
C2170      H2174   1.104       .  S
C2170      H2175   1.109       .  S
C2170      H2176   1.111       .  S
C2177      C2178   1.401       .  A
C2177      C2182   1.401   1_565  A
C2177      H2184   1.084       .  S
C2178      C2179   1.409       .  A
C2179      C2186   1.505       .  S
C2179      C2180   1.406   1_565  A
C2180      C2181   1.402       .  A
C2180      H2185   1.082       .  S
C2181      C2182   1.410       .  A
C2182      C2183   1.502       .  S
C2183      H2187   1.111       .  S
C2183      H2188   1.105       .  S
C2183      H2189   1.109       .  S
C2186      H2190   1.105       .  S
C2186      H2191   1.110       .  S
C2186      H2192   1.111       .  S
C2193      C2194   1.405       .  A
C2193      C2198   1.409   1_545  A
C2193      H2200   1.084       .  S
C2194      C2195   1.415       .  A
C2195      C2202   1.503       .  S
C2195      C2196   1.398   1_545  A
C2196      C2197   1.398       .  A
C2196      H2201   1.084       .  S
C2197      C2198   1.409       .  A
C2198      C2199   1.503       .  S
C2199      H2203   1.111       .  S
C2199      H2204   1.110       .  S
C2199      H2205   1.107       .  S
C2202      H2206   1.108       .  S
C2202      H2207   1.104       .  S
C2202      H2208   1.111       .  S
C2209      C2210   1.398       .  A
C2209      C2214   1.395       .  A
C2209      H2216   1.085       .  S
C2210      C2211   1.405       .  A
C2211      C2218   1.502       .  S
C2211      C2212   1.402       .  A
C2212      C2213   1.405       .  A
C2212      H2217   1.080       .  S
C2213      C2214   1.420       .  A
C2214      C2215   1.507       .  S
C2215      H2219   1.111       .  S
C2215      H2220   1.107       .  S
C2215      H2221   1.105       .  S
C2218      H2222   1.110       .  S
C2218      H2223   1.109       .  S
C2218      H2224   1.109       .  S
C2225      C2226   1.398       .  A
C2225      C2230   1.404       .  A
C2225      H2232   1.082       .  S
C2226      C2227   1.411       .  A
C2227      C2234   1.507       .  S
C2227      C2228   1.402       .  A
C2228      C2229   1.405       .  A
C2228      H2233   1.083       .  S
C2229      C2230   1.416       .  A
C2230      C2231   1.498       .  S
C2231      H2235   1.110       .  S
C2231      H2236   1.108       .  S
C2231      H2237   1.103       .  S
C2234      H2238   1.109       .  S
C2234      H2239   1.108       .  S
C2234      H2240   1.111       .  S
C2241      C2242   1.400       .  A
C2241      C2246   1.403       .  A
C2241      H2248   1.084       .  S
C2242      C2243   1.415       .  A
C2243      C2250   1.508       .  S
C2243      C2244   1.397       .  A
C2244      C2245   1.403       .  A
C2244      H2249   1.085       .  S
C2245      C2246   1.414       .  A
C2246      C2247   1.500       .  S
C2247      H2251   1.110       .  S
C2247      H2252   1.103       .  S
C2247      H2253   1.110       .  S
C2250      H2254   1.106       .  S
C2250      H2255   1.111       .  S
C2250      H2256   1.110       .  S
C2257      C2258   1.404       .  A
C2257      C2262   1.402       .  A
C2257      H2264   1.071       .  S
C2258      C2259   1.414       .  A
C2259      C2266   1.507       .  S
C2259      C2260   1.402       .  A
C2260      C2261   1.414       .  A
C2260      H2265   1.081       .  S
C2261      C2262   1.425       .  A
C2262      C2263   1.507       .  S
C2263      H2267   1.111       .  S
C2263      H2268   1.110       .  S
C2263      H2269   1.103       .  S
C2266      H2270   1.109       .  S
C2266      H2271   1.110       .  S
C2266      H2272   1.111       .  S
C2273      C2274   1.403       .  A
C2273      C2278   1.403       .  A
C2273      H2280   1.083       .  S
C2274      C2275   1.413       .  A
C2275      C2282   1.505       .  S
C2275      C2276   1.395       .  A
C2276      C2277   1.403       .  A
C2276      H2281   1.085       .  S
C2277      C2278   1.410       .  A
C2278      C2279   1.503       .  S
C2279      H2283   1.108       .  S
C2279      H2284   1.106       .  S
C2279      H2285   1.109       .  S
C2282      H2286   1.111       .  S
C2282      H2287   1.103       .  S
C2282      H2288   1.110       .  S
C2289      C2290   1.399       .  A
C2289      C2294   1.403   1_565  A
C2289      H2296   1.084       .  S
C2290      C2291   1.415       .  A
C2291      C2298   1.502       .  S
C2291      C2292   1.404   1_565  A
C2292      C2293   1.399       .  A
C2292      H2297   1.084       .  S
C2293      C2294   1.414       .  A
C2294      C2295   1.504       .  S
C2295      H2299   1.111       .  S
C2295      H2300   1.102       .  S
C2295      H2301   1.110       .  S
C2298      H2302   1.111       .  S
C2298      H2303   1.107       .  S
C2298      H2304   1.110       .  S
C2305      C2306   1.401       .  A
C2305      C2310   1.407       .  A
C2305      H2312   1.084       .  S
C2306      C2307   1.416       .  A
C2307      C2314   1.509       .  S
C2307      C2308   1.396       .  A
C2308      C2309   1.404       .  A
C2308      H2313   1.085       .  S
C2309      C2310   1.417       .  A
C2310      C2311   1.502       .  S
C2311      H2315   1.107       .  S
C2311      H2316   1.106       .  S
C2311      H2317   1.104       .  S
C2314      H2318   1.104       .  S
C2314      H2319   1.111       .  S
C2314      H2320   1.110       .  S
C2321      C2322   1.403       .  A
C2321      C2326   1.406   1_565  A
C2321      H2328   1.083       .  S
C2322      C2323   1.412       .  A
C2323      C2330   1.501       .  S
C2323      C2324   1.399   1_565  A
C2324      C2325   1.397       .  A
C2324      H2329   1.085       .  S
C2325      C2326   1.410       .  A
C2326      C2327   1.505       .  S
C2327      H2331   1.111       .  S
C2327      H2332   1.110       .  S
C2327      H2333   1.110       .  S
C2330      H2334   1.109       .  S
C2330      H2335   1.105       .  S
C2330      H2336   1.111       .  S
C2337      C2338   1.400       .  A
C2337      C2342   1.399       .  A
C2337      H2344   1.085       .  S
C2338      C2339   1.414       .  A
C2339      C2346   1.503       .  S
C2339      C2340   1.406       .  A
C2340      C2341   1.402       .  A
C2340      H2345   1.084       .  S
C2341      C2342   1.416       .  A
C2342      C2343   1.507       .  S
C2343      H2347   1.110       .  S
C2343      H2348   1.105       .  S
C2343      H2349   1.110       .  S
C2346      H2350   1.110       .  S
C2346      H2351   1.104       .  S
C2346      H2352   1.111       .  S
C2353      C2354   1.400       .  A
C2353      C2358   1.402       .  A
C2353      H2360   1.084       .  S
C2354      C2355   1.413       .  A
C2355      C2362   1.507       .  S
C2355      C2356   1.409       .  A
C2356      C2357   1.416       .  A
C2356      H2361   1.076       .  S
C2357      C2358   1.430       .  A
C2358      C2359   1.511       .  S
C2359      H2363   1.111       .  S
C2359      H2364   1.107       .  S
C2359      H2365   1.109       .  S
C2362      H2366   1.110       .  S
C2362      H2367   1.110       .  S
C2362      H2368   1.111       .  S
C2369      C2370   1.399       .  A
C2369      C2374   1.400       .  A
C2369      H2376   1.084       .  S
C2370      C2371   1.419       .  A
C2371      C2378   1.508       .  S
C2371      C2372   1.409       .  A
C2372      C2373   1.410       .  A
C2372      H2377   1.077       .  S
C2373      C2374   1.433       .  A
C2374      C2375   1.518       .  S
C2375      H2379   1.111       .  S
C2375      H2380   1.106       .  S
C2375      H2381   1.107       .  S
C2378      H2382   1.110       .  S
C2378      H2383   1.110       .  S
C2378      H2384   1.111       .  S
C2385      C2386   1.412       .  A
C2385      C2390   1.412       .  A
C2385      H2392   1.078       .  S
C2386      C2387   1.433       .  A
C2387      C2394   1.512       .  S
C2387      C2388   1.395       .  A
C2388      C2389   1.394       .  A
C2388      H2393   1.084       .  S
C2389      C2390   1.418       .  A
C2390      C2391   1.507       .  S
C2391      H2395   1.111       .  S
C2391      H2396   1.110       .  S
C2391      H2397   1.110       .  S
C2394      H2398   1.104       .  S
C2394      H2399   1.103       .  S
C2394      H2400   1.111       .  S
C2401      C2402   1.404       .  A
C2401      C2406   1.404       .  A
C2401      H2408   1.084       .  S
C2402      C2403   1.410       .  A
C2403      C2410   1.509       .  S
C2403      C2404   1.404       .  A
C2404      C2405   1.415       .  A
C2404      H2409   1.076       .  S
C2405      C2406   1.426       .  A
C2406      C2407   1.514       .  S
C2407      H2411   1.111       .  S
C2407      H2412   1.107       .  S
C2407      H2413   1.106       .  S
C2410      H2414   1.110       .  S
C2410      H2415   1.109       .  S
C2410      H2416   1.111       .  S
C2417      C2418   1.402       .  A
C2417      C2422   1.403       .  A
C2417      H2424   1.084       .  S
C2418      C2419   1.409       .  A
C2419      C2426   1.509       .  S
C2419      C2420   1.405       .  A
C2420      C2421   1.418       .  A
C2420      H2425   1.073       .  S
C2421      C2422   1.426       .  A
C2422      C2423   1.510       .  S
C2423      H2427   1.111       .  S
C2423      H2428   1.108       .  S
C2423      H2429   1.109       .  S
C2426      H2430   1.110       .  S
C2426      H2431   1.109       .  S
C2426      H2432   1.111       .  S
C2433      C2434   1.394       .  A
C2433      C2438   1.391       .  A
C2433      H2440   1.086       .  S
C2434      C2435   1.417       .  A
C2435      C2442   1.507       .  S
C2435      C2436   1.412       .  A
C2436      C2437   1.411       .  A
C2436      H2441   1.078       .  S
C2437      C2438   1.432       .  A
C2438      C2439   1.513       .  S
C2439      H2443   1.110       .  S
C2439      H2444   1.094       .  S
C2439      H2445   1.111       .  S
C2442      H2446   1.110       .  S
C2442      H2447   1.110       .  S
C2442      H2448   1.110       .  S
C2449      C2450   1.411       .  A
C2449      C2454   1.409       .  A
C2449      H2456   1.077       .  S
C2450      C2451   1.432       .  A
C2451      C2458   1.516       .  S
C2451      C2452   1.398       .  A
C2452      C2453   1.398       .  A
C2452      H2457   1.085       .  S
C2453      C2454   1.415       .  A
C2454      C2455   1.508       .  S
C2455      H2459   1.111       .  S
C2455      H2460   1.111       .  S
C2455      H2461   1.109       .  S
C2458      H2462   1.100       .  S
C2458      H2463   1.110       .  S
C2458      H2464   1.111       .  S
C2465      C2466   1.396       .  A
C2465      C2470   1.399       .  A
C2465      H2472   1.084       .  S
C2466      C2467   1.413       .  A
C2467      C2474   1.507       .  S
C2467      C2468   1.410       .  A
C2468      C2469   1.412       .  A
C2468      H2473   1.077       .  S
C2469      C2470   1.434       .  A
C2470      C2471   1.517       .  S
C2471      H2475   1.111       .  S
C2471      H2476   1.104       .  S
C2471      H2477   1.105       .  S
C2474      H2478   1.110       .  S
C2474      H2479   1.110       .  S
C2474      H2480   1.111       .  S
C2481      C2482   1.414       .  A
C2481      C2486   1.404       .  A
C2481      H2488   1.075       .  S
C2482      C2483   1.428       .  A
C2483      C2490   1.513       .  S
C2483      C2484   1.407       .  A
C2484      C2485   1.402       .  A
C2484      H2489   1.084       .  S
C2485      C2486   1.410       .  A
C2486      C2487   1.509       .  S
C2487      H2491   1.111       .  S
C2487      H2492   1.108       .  S
C2487      H2493   1.110       .  S
C2490      H2494   1.107       .  S
C2490      H2495   1.107       .  S
C2490      H2496   1.111       .  S
C2497      C2498   1.400       .  A
C2497      C2502   1.404       .  A
C2497      H2504   1.085       .  S
C2498      C2499   1.416       .  A
C2499      C2506   1.510       .  S
C2499      C2500   1.399       .  A
C2500      C2501   1.407       .  A
C2500      H2505   1.084       .  S
C2501      C2502   1.420       .  A
C2502      C2503   1.505       .  S
C2503      H2507   1.111       .  S
C2503      H2508   1.110       .  S
C2503      H2509   1.109       .  S
C2506      H2510   1.111       .  S
C2506      H2511   1.110       .  S
C2506      H2512   1.111       .  S
C2513      C2514   1.407       .  A
C2513      C2518   1.405       .  A
C2513      H2520   1.084       .  S
C2514      C2515   1.416       .  A
C2515      C2522   1.505       .  S
C2515      C2516   1.398       .  A
C2516      C2517   1.398       .  A
C2516      H2521   1.080       .  S
C2517      C2518   1.414       .  A
C2518      C2519   1.507       .  S
C2519      H2523   1.110       .  S
C2519      H2524   1.107       .  S
C2519      H2525   1.111       .  S
C2522      H2526   1.105       .  S
C2522      H2527   1.107       .  S
C2522      H2528   1.111       .  S
C2529      C2530   1.415       .  A
C2529      C2534   1.404       .  A
C2529      H2536   1.074       .  S
C2530      C2531   1.425       .  A
C2531      C2538   1.512       .  S
C2531      C2532   1.405       .  A
C2532      C2533   1.403       .  A
C2532      H2537   1.084       .  S
C2533      C2534   1.411       .  A
C2534      C2535   1.509       .  S
C2535      H2539   1.111       .  S
C2535      H2540   1.111       .  S
C2535      H2541   1.109       .  S
C2538      H2542   1.107       .  S
C2538      H2543   1.108       .  S
C2538      H2544   1.111       .  S
C2545      C2546   1.399       .  A
C2545      C2550   1.401   1_655  A
C2545      H2552   1.079       .  S
C2546      C2547   1.412       .  A
C2547      C2554   1.504       .  S
C2547      C2548   1.407   1_655  A
C2548      C2549   1.403       .  A
C2548      H2553   1.083       .  S
C2549      C2550   1.411       .  A
C2550      C2551   1.505       .  S
C2551      H2555   1.111       .  S
C2551      H2556   1.106       .  S
C2551      H2557   1.110       .  S
C2554      H2558   1.108       .  S
C2554      H2559   1.109       .  S
C2554      H2560   1.111       .  S
C2561      C2562   1.414       .  A
C2561      C2566   1.407       .  A
C2561      H2568   1.077       .  S
C2562      C2563   1.428       .  A
C2563      C2570   1.512       .  S
C2563      C2564   1.395       .  A
C2564      C2565   1.399       .  A
C2564      H2569   1.085       .  S
C2565      C2566   1.410       .  A
C2566      C2567   1.507       .  S
C2567      H2571   1.111       .  S
C2567      H2572   1.109       .  S
C2567      H2573   1.110       .  S
C2570      H2574   1.111       .  S
C2570      H2575   1.095       .  S
C2570      H2576   1.111       .  S
C2577      C2578   1.399       .  A
C2577      C2582   1.400   1_655  A
C2577      H2584   1.081       .  S
C2578      C2579   1.413       .  A
C2579      C2586   1.507       .  S
C2579      C2580   1.400   1_655  A
C2580      C2581   1.399       .  A
C2580      H2585   1.083       .  S
C2581      C2582   1.409       .  A
C2582      C2583   1.504       .  S
C2583      H2587   1.111       .  S
C2583      H2588   1.110       .  S
C2583      H2589   1.108       .  S
C2586      H2590   1.105       .  S
C2586      H2591   1.111       .  S
C2586      H2592   1.110       .  S
C2593      C2594   1.399       .  A
C2593      C2598   1.402       .  A
C2593      H2600   1.077       .  S
C2594      C2595   1.415       .  A
C2595      C2602   1.511       .  S
C2595      C2596   1.397       .  A
C2596      C2597   1.401       .  A
C2596      H2601   1.081       .  S
C2597      C2598   1.413       .  A
C2598      C2599   1.504       .  S
C2599      H2603   1.111       .  S
C2599      H2604   1.109       .  S
C2599      H2605   1.106       .  S
C2602      H2606   1.108       .  S
C2602      H2607   1.110       .  S
C2602      H2608   1.111       .  S
C2609      C2610   1.414       .  A
C2609      C2614   1.406       .  A
C2609      H2616   1.078       .  S
C2610      C2611   1.433       .  A
C2611      C2618   1.507       .  S
C2611      C2612   1.397       .  A
C2612      C2613   1.392       .  A
C2612      H2617   1.085       .  S
C2613      C2614   1.414       .  A
C2614      C2615   1.508       .  S
C2615      H2619   1.111       .  S
C2615      H2620   1.110       .  S
C2615      H2621   1.110       .  S
C2618      H2622   1.103       .  S
C2618      H2623   1.107       .  S
C2618      H2624   1.111       .  S
C2625      C2626   1.402       .  A
C2625      C2630   1.406       .  A
C2625      H2632   1.079       .  S
C2626      C2627   1.414       .  A
C2627      C2634   1.507       .  S
C2627      C2628   1.397       .  A
C2628      C2629   1.404       .  A
C2628      H2633   1.085       .  S
C2629      C2630   1.413       .  A
C2630      C2631   1.505       .  S
C2631      H2635   1.111       .  S
C2631      H2636   1.107       .  S
C2631      H2637   1.108       .  S
C2634      H2638   1.110       .  S
C2634      H2639   1.106       .  S
C2634      H2640   1.110       .  S
C2641      C2642   1.399       .  A
C2641      C2646   1.403       .  A
C2641      H2648   1.084       .  S
C2642      C2643   1.406       .  A
C2643      C2650   1.508       .  S
C2643      C2644   1.402       .  A
C2644      C2645   1.417       .  A
C2644      H2649   1.076       .  S
C2645      C2646   1.428       .  A
C2646      C2647   1.511       .  S
C2647      H2651   1.111       .  S
C2647      H2652   1.108       .  S
C2647      H2653   1.108       .  S
C2650      H2654   1.109       .  S
C2650      H2655   1.110       .  S
C2650      H2656   1.111       .  S
C2657      C2658   1.401       .  A
C2657      C2662   1.397       .  A
C2657      H2664   1.085       .  S
C2658      C2659   1.415       .  A
C2659      C2666   1.499       .  S
C2659      C2660   1.405       .  A
C2660      C2661   1.401       .  A
C2660      H2665   1.085       .  S
C2661      C2662   1.414       .  A
C2662      C2663   1.504       .  S
C2663      H2667   1.110       .  S
C2663      H2668   1.110       .  S
C2663      H2669   1.104       .  S
C2666      H2670   1.110       .  S
C2666      H2671   1.096       .  S
C2666      H2672   1.108       .  S
C2673      C2674   1.409       .  A
C2673      C2678   1.406       .  A
C2673      H2680   1.082       .  S
C2674      C2675   1.419       .  A
C2675      C2682   1.513       .  S
C2675      C2676   1.393       .  A
C2676      C2677   1.401       .  A
C2676      H2681   1.076       .  S
C2677      C2678   1.412       .  A
C2678      C2679   1.505       .  S
C2679      H2683   1.110       .  S
C2679      H2684   1.111       .  S
C2679      H2685   1.106       .  S
C2682      H2686   1.101       .  S
C2682      H2687   1.111       .  S
C2682      H2688   1.111       .  S
C2689      C2690   1.398       .  A
C2689      C2694   1.400       .  A
C2689      H2696   1.084       .  S
C2690      C2691   1.418       .  A
C2691      C2698   1.508       .  S
C2691      C2692   1.409       .  A
C2692      C2693   1.409       .  A
C2692      H2697   1.077       .  S
C2693      C2694   1.433       .  A
C2694      C2695   1.517       .  S
C2695      H2699   1.111       .  S
C2695      H2700   1.106       .  S
C2695      H2701   1.106       .  S
C2698      H2702   1.110       .  S
C2698      H2703   1.109       .  S
C2698      H2704   1.111       .  S
C2705      C2706   1.402       .  A
C2705      C2710   1.406       .  A
C2705      H2712   1.083       .  S
C2706      C2707   1.412       .  A
C2707      C2714   1.508       .  S
C2707      C2708   1.396       .  A
C2708      C2709   1.405       .  A
C2708      H2713   1.084       .  S
C2709      C2710   1.418       .  A
C2710      C2711   1.505       .  S
C2711      H2715   1.110       .  S
C2711      H2716   1.111       .  S
C2711      H2717   1.101       .  S
C2714      H2718   1.106       .  S
C2714      H2719   1.111       .  S
C2714      H2720   1.110       .  S
C2721      C2722   1.400       .  A
C2721      C2726   1.399   1_655  A
C2721      H2728   1.081       .  S
C2722      C2723   1.408       .  A
C2723      C2730   1.504       .  S
C2723      C2724   1.404   1_655  A
C2724      C2725   1.403       .  A
C2724      H2729   1.084       .  S
C2725      C2726   1.410       .  A
C2726      C2727   1.505       .  S
C2727      H2731   1.110       .  S
C2727      H2732   1.109       .  S
C2727      H2733   1.109       .  S
C2730      H2734   1.104       .  S
C2730      H2735   1.110       .  S
C2730      H2736   1.110       .  S
C2737      C2738   1.415       .  A
C2737      C2742   1.406       .  A
C2737      H2744   1.075       .  S
C2738      C2739   1.425       .  A
C2739      C2746   1.513       .  S
C2739      C2740   1.404       .  A
C2740      C2741   1.403       .  A
C2740      H2745   1.084       .  S
C2741      C2742   1.410       .  A
C2742      C2743   1.508       .  S
C2743      H2747   1.111       .  S
C2743      H2748   1.110       .  S
C2743      H2749   1.109       .  S
C2746      H2750   1.107       .  S
C2746      H2751   1.107       .  S
C2746      H2752   1.111       .  S
C2753      C2754   1.404       .  A
C2753      C2758   1.393       .  A
C2753      H2760   1.085       .  S
C2754      C2755   1.422       .  A
C2755      C2762   1.503       .  S
C2755      C2756   1.409       .  A
C2756      C2757   1.402       .  A
C2756      H2761   1.085       .  S
C2757      C2758   1.415       .  A
C2758      C2759   1.509       .  S
C2759      H2763   1.111       .  S
C2759      H2764   1.110       .  S
C2759      H2765   1.103       .  S
C2762      H2766   1.110       .  S
C2762      H2767   1.096       .  S
C2762      H2768   1.110       .  S
C2769      C2770   1.400       .  A
C2769      C2774   1.401   1_655  A
C2769      H2776   1.083       .  S
C2770      C2771   1.410       .  A
C2771      C2778   1.508       .  S
C2771      C2772   1.404   1_655  A
C2772      C2773   1.401       .  A
C2772      H2777   1.084       .  S
C2773      C2774   1.409       .  A
C2774      C2775   1.506       .  S
C2775      H2779   1.111       .  S
C2775      H2780   1.102       .  S
C2775      H2781   1.110       .  S
C2778      H2782   1.108       .  S
C2778      H2783   1.110       .  S
C2778      H2784   1.111       .  S
C2785      C2786   1.401       .  A
C2785      C2790   1.405       .  A
C2785      H2792   1.083       .  S
C2786      C2787   1.410       .  A
C2787      C2794   1.504       .  S
C2787      C2788   1.394       .  A
C2788      C2789   1.399       .  A
C2788      H2793   1.084       .  S
C2789      C2790   1.410       .  A
C2790      C2791   1.501       .  S
C2791      H2795   1.111       .  S
C2791      H2796   1.109       .  S
C2791      H2797   1.110       .  S
C2794      H2798   1.110       .  S
C2794      H2799   1.106       .  S
C2794      H2800   1.111       .  S
C2801      C2802   1.397       .  A
C2801      C2806   1.402       .  A
C2801      H2808   1.084       .  S
C2802      C2803   1.418       .  A
C2803      C2810   1.509       .  S
C2803      C2804   1.408       .  A
C2804      C2805   1.411       .  A
C2804      H2809   1.077       .  S
C2805      C2806   1.432       .  A
C2806      C2807   1.510       .  S
C2807      H2811   1.111       .  S
C2807      H2812   1.107       .  S
C2807      H2813   1.103       .  S
C2810      H2814   1.110       .  S
C2810      H2815   1.110       .  S
C2810      H2816   1.111       .  S
C2817      C2818   1.405       .  A
C2817      C2822   1.407       .  A
C2817      H2824   1.084       .  S
C2818      C2819   1.411       .  A
C2819      C2826   1.509       .  S
C2819      C2820   1.404       .  A
C2820      C2821   1.415       .  A
C2820      H2825   1.076       .  S
C2821      C2822   1.425       .  A
C2822      C2823   1.512       .  S
C2823      H2827   1.111       .  S
C2823      H2828   1.107       .  S
C2823      H2829   1.108       .  S
C2826      H2830   1.110       .  S
C2826      H2831   1.109       .  S
C2826      H2832   1.111       .  S
C2833      C2834   1.403       .  A
C2833      C2838   1.394       .  A
C2833      H2840   1.080       .  S
C2834      C2835   1.419       .  A
C2835      C2842   1.505       .  S
C2835      C2836   1.410       .  A
C2836      C2837   1.404       .  A
C2836      H2841   1.082       .  S
C2837      C2838   1.414       .  A
C2838      C2839   1.511       .  S
C2839      H2843   1.111       .  S
C2839      H2844   1.110       .  S
C2839      H2845   1.106       .  S
C2842      H2846   1.105       .  S
C2842      H2847   1.106       .  S
C2842      H2848   1.111       .  S
C2849      C2850   1.408       .  A
C2849      C2854   1.402       .  A
C2849      H2856   1.084       .  S
C2850      C2851   1.421       .  A
C2851      C2858   1.505       .  S
C2851      C2852   1.408       .  A
C2852      C2853   1.403       .  A
C2852      H2857   1.085       .  S
C2853      C2854   1.418       .  A
C2854      C2855   1.509       .  S
C2855      H2859   1.111       .  S
C2855      H2860   1.111       .  S
C2855      H2861   1.110       .  S
C2858      H2862   1.110       .  S
C2858      H2863   1.108       .  S
C2858      H2864   1.111       .  S
C2865      C2866   1.402       .  A
C2865      C2870   1.405       .  A
C2865      H2872   1.084       .  S
C2866      C2867   1.408       .  A
C2867      C2874   1.505       .  S
C2867      C2868   1.402       .  A
C2868      C2869   1.401       .  A
C2868      H2873   1.084       .  S
C2869      C2870   1.410       .  A
C2870      C2871   1.507       .  S
C2871      H2875   1.110       .  S
C2871      H2876   1.108       .  S
C2871      H2877   1.110       .  S
C2874      H2878   1.105       .  S
C2874      H2879   1.110       .  S
C2874      H2880   1.111       .  S
C2881      C2882   1.413       .  A
C2881      C2886   1.407       .  A
C2881      H2888   1.080       .  S
C2882      C2883   1.433       .  A
C2883      C2890   1.510       .  S
C2883      C2884   1.403       .  A
C2884      C2885   1.399       .  A
C2884      H2889   1.084       .  S
C2885      C2886   1.417       .  A
C2886      C2887   1.509       .  S
C2887      H2891   1.111       .  S
C2887      H2892   1.111       .  S
C2887      H2893   1.109       .  S
C2890      H2894   1.108       .  S
C2890      H2895   1.108       .  S
C2890      H2896   1.111       .  S
C2897      C2898   1.404       .  A
C2897      C2902   1.408       .  A
C2897      H2904   1.084       .  S
C2898      C2899   1.412       .  A
C2899      C2906   1.505       .  S
C2899      C2900   1.397       .  A
C2900      C2901   1.397       .  A
C2900      H2905   1.084       .  S
C2901      C2902   1.413       .  A
C2902      C2903   1.508       .  S
C2903      H2907   1.111       .  S
C2903      H2908   1.107       .  S
C2903      H2909   1.110       .  S
C2906      H2910   1.111       .  S
C2906      H2911   1.106       .  S
C2906      H2912   1.111       .  S
C2913      C2914   1.398       .  A
C2913      C2918   1.398       .  A
C2913      H2920   1.078       .  S
C2914      C2915   1.410       .  A
C2915      C2922   1.506       .  S
C2915      C2916   1.406       .  A
C2916      C2917   1.409       .  A
C2916      H2921   1.083       .  S
C2917      C2918   1.418       .  A
C2918      C2919   1.508       .  S
C2919      H2923   1.111       .  S
C2919      H2924   1.105       .  S
C2919      H2925   1.104       .  S
C2922      H2926   1.111       .  S
C2922      H2927   1.109       .  S
C2922      H2928   1.111       .  S
C2929      C2930   1.416       .  A
C2929      C2934   1.409       .  A
C2929      H2936   1.073       .  S
C2930      C2931   1.427       .  A
C2931      C2938   1.512       .  S
C2931      C2932   1.405       .  A
C2932      C2933   1.404       .  A
C2932      H2937   1.083       .  S
C2933      C2934   1.414       .  A
C2934      C2935   1.508       .  S
C2935      H2939   1.110       .  S
C2935      H2940   1.111       .  S
C2935      H2941   1.109       .  S
C2938      H2942   1.108       .  S
C2938      H2943   1.107       .  S
C2938      H2944   1.111       .  S
C2945      C2946   1.398       .  A
C2945      C2950   1.393       .  A
C2945      H2952   1.085       .  S
C2946      C2947   1.409       .  A
C2947      C2954   1.501       .  S
C2947      C2948   1.408       .  A
C2948      C2949   1.405       .  A
C2948      H2953   1.084       .  S
C2949      C2950   1.415       .  A
C2950      C2951   1.507       .  S
C2951      H2955   1.111       .  S
C2951      H2956   1.105       .  S
C2951      H2957   1.107       .  S
C2954      H2958   1.109       .  S
C2954      H2959   1.110       .  S
C2954      H2960   1.107       .  S
C2961      C2962   1.417       .  A
C2961      C2966   1.409       .  A
C2961      H2968   1.074       .  S
C2962      C2963   1.428       .  A
C2963      C2970   1.511       .  S
C2963      C2964   1.406       .  A
C2964      C2965   1.402       .  A
C2964      H2969   1.084       .  S
C2965      C2966   1.411       .  A
C2966      C2967   1.508       .  S
C2967      H2971   1.111       .  S
C2967      H2972   1.109       .  S
C2967      H2973   1.110       .  S
C2970      H2974   1.108       .  S
C2970      H2975   1.107       .  S
C2970      H2976   1.111       .  S
C2977      C2978   1.401       .  A
C2977      C2982   1.407       .  A
C2977      H2984   1.084       .  S
C2978      C2979   1.415       .  A
C2979      C2986   1.509       .  S
C2979      C2980   1.396       .  A
C2980      C2981   1.401       .  A
C2980      H2985   1.084       .  S
C2981      C2982   1.418       .  A
C2982      C2983   1.502       .  S
C2983      H2987   1.109       .  S
C2983      H2988   1.110       .  S
C2983      H2989   1.098       .  S
C2986      H2990   1.110       .  S
C2986      H2991   1.107       .  S
C2986      H2992   1.111       .  S
C2993      C2994   1.400       .  A
C2993      C2998   1.398       .  A
C2993      H3000   1.082       .  S
C2994      C2995   1.415       .  A
C2995      C3002   1.506       .  S
C2995      C2996   1.407       .  A
C2996      C2997   1.409       .  A
C2996      H3001   1.084       .  S
C2997      C2998   1.417       .  A
C2998      C2999   1.503       .  S
C2999      H3003   1.111       .  S
C2999      H3004   1.103       .  S
C2999      H3005   1.104       .  S
C3002      H3006   1.108       .  S
C3002      H3007   1.111       .  S
C3002      H3008   1.110       .  S
C3009      C3010   1.411       .  A
C3009      C3014   1.412       .  A
C3009      H3016   1.077       .  S
C3010      C3011   1.433       .  A
C3011      C3018   1.512       .  S
C3011      C3012   1.406       .  A
C3012      C3013   1.400       .  A
C3012      H3017   1.084       .  S
C3013      C3014   1.420       .  A
C3014      C3015   1.508       .  S
C3015      H3019   1.111       .  S
C3015      H3020   1.110       .  S
C3015      H3021   1.110       .  S
C3018      H3022   1.106       .  S
C3018      H3023   1.102       .  S
C3018      H3024   1.111       .  S
C3025      C3026   1.401       .  A
C3025      C3030   1.406       .  A
C3025      H3032   1.084       .  S
C3026      C3027   1.411       .  A
C3027      C3034   1.505       .  S
C3027      C3028   1.396       .  A
C3028      C3029   1.404       .  A
C3028      H3033   1.085       .  S
C3029      C3030   1.416       .  A
C3030      C3031   1.499       .  S
C3031      H3035   1.109       .  S
C3031      H3036   1.110       .  S
C3031      H3037   1.100       .  S
C3034      H3038   1.107       .  S
C3034      H3039   1.111       .  S
C3034      H3040   1.110       .  S
C3041      C3042   1.403       .  A
C3041      C3046   1.407       .  A
C3041      H3048   1.082       .  S
C3042      C3043   1.411       .  A
C3043      C3050   1.504       .  S
C3043      C3044   1.404       .  A
C3044      C3045   1.403       .  A
C3044      H3049   1.085       .  S
C3045      C3046   1.414       .  A
C3046      C3047   1.506       .  S
C3047      H3051   1.110       .  S
C3047      H3052   1.108       .  S
C3047      H3053   1.110       .  S
C3050      H3054   1.110       .  S
C3050      H3055   1.105       .  S
C3050      H3056   1.111       .  S
C3057      C3058   1.409       .  A
C3057      C3062   1.411       .  A
C3057      H3064   1.080       .  S
C3058      C3059   1.436       .  A
C3059      C3066   1.516       .  S
C3059      C3060   1.398       .  A
C3060      C3061   1.395       .  A
C3060      H3065   1.084       .  S
C3061      C3062   1.419       .  A
C3062      C3063   1.507       .  S
C3063      H3067   1.111       .  S
C3063      H3068   1.109       .  S
C3063      H3069   1.110       .  S
C3066      H3070   1.107       .  S
C3066      H3071   1.107       .  S
C3066      H3072   1.111       .  S
C3073      C3074   1.404       .  A
C3073      C3078   1.389       .  A
C3073      H3080   1.083       .  S
C3074      C3075   1.413       .  A
C3075      C3082   1.504       .  S
C3075      C3076   1.409       .  A
C3076      C3077   1.406       .  A
C3076      H3081   1.084       .  S
C3077      C3078   1.414       .  A
C3078      C3079   1.511       .  S
C3079      H3083   1.111       .  S
C3079      H3084   1.110       .  S
C3079      H3085   1.105       .  S
C3082      H3086   1.103       .  S
C3082      H3087   1.108       .  S
C3082      H3088   1.110       .  S
C3089      C3090   1.400       .  A
C3089      C3094   1.403       .  A
C3089      H3096   1.085       .  S
C3090      C3091   1.413       .  A
C3091      C3098   1.506       .  S
C3091      C3092   1.408       .  A
C3092      C3093   1.403       .  A
C3092      H3097   1.083       .  S
C3093      C3094   1.415       .  A
C3094      C3095   1.505       .  S
C3095      H3099   1.110       .  S
C3095      H3100   1.107       .  S
C3095      H3101   1.110       .  S
C3098      H3102   1.110       .  S
C3098      H3103   1.109       .  S
C3098      H3104   1.111       .  S
C3105      C3106   1.408       .  A
C3105      C3110   1.403       .  A
C3105      H3112   1.084       .  S
C3106      C3107   1.417       .  A
C3107      C3114   1.503       .  S
C3107      C3108   1.396       .  A
C3108      C3109   1.399       .  A
C3108      H3113   1.083       .  S
C3109      C3110   1.412       .  A
C3110      C3111   1.506       .  S
C3111      H3115   1.111       .  S
C3111      H3116   1.110       .  S
C3111      H3117   1.109       .  S
C3114      H3118   1.105       .  S
C3114      H3119   1.111       .  S
C3114      H3120   1.103       .  S
