geometry optimzed in LAMMPS
_audit_creation_date              2020-11-30 
_audit_creation_method            'lammps2cif' 
_symmetry_space_group_name_H-M    'P1' 
_symmetry_Int_Tables_number       1 
_symmetry_cell_setting            triclinic 
loop_ 
_symmetry_equiv_pos_as_xyz 
  x,y,z 
_cell_length_a                    85.88580774 
_cell_length_b                    86.28108978239297 
_cell_length_c                    42.574592580598214 
_cell_angle_alpha                 90.20635674189822 
_cell_angle_beta                  89.72583351529697 
_cell_angle_gamma                 122.26350290181418 
loop_ 
_atom_site_label 
_atom_site_type_symbol 
_atom_site_fract_x 
_atom_site_fract_y 
_atom_site_fract_z 
_atom_site_charge 
C1          C  0.50872546  0.91529321  0.49265896    -0.02800
C2          C  0.38896004  0.91403163  0.00037467    -0.02800
C3          C  0.44542159  0.04948200  0.98825102    -0.02800
C4          C  0.56782091  0.05551125  0.00529492    -0.02800
C5          C  0.91416548  0.39341250  0.99403279    -0.02800
C6          C  0.91568522  0.51320245  0.01270891    -0.02800
C7          C  0.05517713  0.57632539  0.99344330    -0.02800
C8          C  0.05421588  0.45854363  0.00270646    -0.02800
In9        In  0.50759801  0.65843188  0.25866010     1.36900
C10         C  0.47406963  0.62807514  0.25899895     0.77200
O11         O  0.50220791  0.65372188  0.20737268    -0.61200
O12         O  0.52711913  0.65727430  0.22465223    -0.52100
C13         C  0.51424337  0.69252596  0.25826171     0.69900
O14         O  0.49953232  0.67867280  0.26805314    -0.47000
C15         C  0.51969459  0.65297512  0.31252250     0.74600
O16         O  0.47657888  0.64384944  0.26078385    -0.58900
O17         O  0.52544888  0.65138219  0.28618388    -0.48900
O18         O  0.48863603  0.62796265  0.25744782    -0.55300
C19         C  0.51649349  0.65347822  0.20148927     0.84800
O20         O  0.52612290  0.68913149  0.24901221    -0.57200
O21         O  0.50910893  0.65886012  0.31118050    -0.60500
In22       In  0.13936116  0.46742625  0.25400747     1.36900
C23         C  0.14317718  0.49977925  0.26123830     0.77200
O24         O  0.13789232  0.47424934  0.20381842    -0.61200
O25         O  0.11658374  0.44833539  0.22020653    -0.52100
C26         C  0.16811491  0.46326072  0.25035145     0.69900
O27         O  0.16936875  0.47843850  0.25192151    -0.47000
C28         C  0.12272277  0.45570935  0.30971019     0.74600
O29         O  0.15677614  0.49827537  0.25585657    -0.58900
O30         O  0.11494027  0.44792312  0.28425450    -0.48900
O31         O  0.12790358  0.48481269  0.26284208    -0.55300
C32         C  0.12264841  0.45984520  0.19807725     0.84800
O33         O  0.15172625  0.44959541  0.25046148    -0.57200
O34         O  0.13956409  0.46790691  0.30681213    -0.60500
In35       In  0.32270445  0.47481866  0.24303397     1.36900
C36         C  0.35127190  0.50951265  0.24512584     0.77200
O37         O  0.31950484  0.46782379  0.29461605    -0.61200
O38         O  0.33791866  0.46386899  0.26770198    -0.52100
C39         C  0.28859502  0.46859958  0.24121322     0.69900
O40         O  0.30297704  0.48403840  0.23633064    -0.47000
C41         C  0.32669196  0.46083139  0.19005648     0.74600
O42         O  0.33985588  0.50235019  0.26732929    -0.58900
O43         O  0.32567006  0.45381053  0.21657166    -0.48900
O44         O  0.34744505  0.49928670  0.22162311    -0.55300
C45         C  0.33141152  0.46349374  0.29447884     0.84800
O46         O  0.29156571  0.45607538  0.24713690    -0.57200
O47         O  0.32397622  0.47381685  0.19064529    -0.60500
In48       In  0.14061743  0.64502403  0.24680467     1.36900
C49         C  0.14200283  0.61521354  0.25396929     0.77200
O50         O  0.13700385  0.64634062  0.29868970    -0.61200
O51         O  0.11375958  0.63722724  0.26949694    -0.52100
C52         C  0.17104599  0.67840105  0.24520581     0.69900
O53         O  0.17103387  0.66385828  0.24279261    -0.47000
C54         C  0.12783797  0.64036506  0.18900551     0.74600
O55         O  0.15500774  0.63094083  0.26202163    -0.58900
O56         O  0.12169108  0.64546232  0.21104214    -0.48900
O57         O  0.12819235  0.61475799  0.24293871    -0.55300
C58         C  0.11996107  0.63990549  0.29703655     0.84800
O59         O  0.15526543  0.67596199  0.24843810    -0.57200
O60         O  0.14147907  0.63935867  0.19615877    -0.60500
In61       In  0.50732578  0.83637239  0.24698725     1.36900
C62         C  0.47398907  0.83011878  0.25841984     0.77200
O63         O  0.51075071  0.83748747  0.29927038    -0.61200
O64         O  0.52663237  0.86234996  0.27422267    -0.52100
C65         C  0.51301713  0.80871447  0.24384917     0.69900
O66         O  0.49748341  0.80671690  0.24694493    -0.47000
C67         C  0.51225164  0.85099079  0.18955153     0.74600
O68         O  0.47661865  0.81742066  0.25187607    -0.58900
O69         O  0.52498666  0.85752565  0.20967047    -0.48900
O70         O  0.48842782  0.84587745  0.25935348    -0.55300
C71         C  0.52153697  0.85464137  0.30069857     0.84800
O72         O  0.52617954  0.82525227  0.24197450    -0.57200
O73         O  0.49780211  0.83652008  0.19819416    -0.60500
In74       In  0.32638300  0.82874285  0.25832829     1.36900
C75         C  0.35425655  0.82348363  0.26281667     0.77200
O76         O  0.32291155  0.83293839  0.20753821    -0.61200
O77         O  0.34400579  0.85547852  0.23309295    -0.52100
C78         C  0.29297154  0.79855620  0.25486392     0.69900
O79         O  0.30717990  0.79845049  0.26169633    -0.47000
C80         C  0.32455814  0.84498737  0.31006008     0.74600
O81         O  0.34314037  0.81735578  0.24017255    -0.58900
O82         O  0.32764280  0.85231321  0.28331463    -0.48900
O83         O  0.35088524  0.83196133  0.28304864    -0.55300
C84         C  0.33607343  0.84945627  0.20707893     0.84800
O85         O  0.29583962  0.81427418  0.24969422    -0.57200
O86         O  0.32113684  0.82885033  0.30991703    -0.60500
In87       In  0.64214097  0.13964369  0.25388345     1.36900
C88         C  0.61177593  0.14030042  0.24815493     0.77200
O89         O  0.64282758  0.14058402  0.20164988    -0.61200
O90         O  0.63735291  0.11605433  0.22351742    -0.52100
C91         C  0.67588493  0.16912180  0.25919457     0.69900
O92         O  0.66151308  0.16931756  0.26385489    -0.47000
C93         C  0.63608512  0.12480586  0.31055119     0.74600
O94         O  0.62765068  0.15453825  0.24528710    -0.58900
O95         O  0.64091679  0.11876338  0.28788393    -0.48900
O96         O  0.61158177  0.12582202  0.25336864    -0.55300
C97         C  0.63833527  0.12418021  0.19825095     0.84800
O98         O  0.67306134  0.15364548  0.25177958    -0.57200
O99         O  0.63545424  0.13867313  0.30416369    -0.60500
In100      In  0.46058020  0.13429268  0.24056461     1.36900
C101        C  0.49310096  0.13741678  0.24214869     0.77200
O102        O  0.46378637  0.13422540  0.29234344    -0.61200
O103        O  0.43944801  0.11193215  0.27232636    -0.52100
C104        C  0.45707907  0.16313398  0.23553100     0.69900
O105        O  0.47107785  0.16318641  0.22651950    -0.47000
C106        C  0.44828891  0.11614750  0.18660556     0.74600
O107        O  0.49106310  0.15020083  0.25095687    -0.58900
O108        O  0.44105196  0.10881507  0.21265139    -0.48900
O109        O  0.47856374  0.12324130  0.23288769    -0.55300
C110        C  0.44921046  0.11883590  0.29660069     0.84800
O111        O  0.44447951  0.14806730  0.24695162    -0.57200
O112        O  0.46055975  0.13295300  0.18829446    -0.60500
In113      In  0.65031096  0.49882633  0.26036683     1.36900
C114        C  0.62519903  0.46307382  0.25562579     0.77200
O115        O  0.65512459  0.51126282  0.30920510    -0.61200
O116        O  0.62902163  0.50049401  0.28812254    -0.52100
C117        C  0.68414105  0.50429657  0.26312957     0.69900
O118        O  0.66943228  0.48879705  0.26434219    -0.47000
C119        C  0.64539004  0.51388505  0.20949012     0.74600
O120        O  0.63217446  0.47070550  0.28150870    -0.58900
O121        O  0.64343761  0.51801367  0.23702732    -0.48900
O122        O  0.63164377  0.47359125  0.23228410    -0.55300
C123        C  0.63887965  0.50773773  0.31206432     0.84800
O124        O  0.68171354  0.51748750  0.26118844    -0.57200
O125        O  0.65180231  0.50374340  0.20822411    -0.60500
In126      In  0.46888678  0.31698027  0.24436968     1.36900
C127        C  0.50388559  0.34488211  0.24349103     0.77200
O128        O  0.46413690  0.31495663  0.19239534    -0.61200
O129        O  0.45368605  0.32811428  0.21941618    -0.52100
C130        C  0.46290070  0.28332864  0.23869825     0.69900
O131        O  0.47763979  0.29775788  0.23087310    -0.47000
C132        C  0.45843216  0.32232266  0.30039556     0.74600
O133        O  0.49872227  0.33011758  0.25771068    -0.58900
O134        O  0.44800046  0.31727141  0.27676151    -0.48900
O135        O  0.49117106  0.34526903  0.22970489    -0.55300
C136        C  0.45630432  0.32383847  0.19240329     0.84800
O137        O  0.45073474  0.28595723  0.24935529    -0.57200
O138        O  0.47338032  0.32325313  0.29566893    -0.60500
In139      In  0.83268062  0.50406602  0.26012416     1.36900
C140        C  0.83036712  0.47259876  0.24973118     0.77200
O141        O  0.83365839  0.50526073  0.20789068    -0.61200
O142        O  0.85786665  0.52479491  0.23221250    -0.52100
C143        C  0.80382898  0.50792890  0.26518966     0.69900
O144        O  0.80290096  0.49306004  0.26992904    -0.47000
C145        C  0.84677896  0.51042139  0.31782000     0.74600
O146        O  0.81664090  0.47418104  0.24668921    -0.58900
O147        O  0.85286273  0.52301830  0.29746124    -0.48900
O148        O  0.84508309  0.48714402  0.25747112    -0.55300
C149        C  0.85042524  0.51784547  0.20606129     0.84800
O150        O  0.81973668  0.52113721  0.25805418    -0.57200
O151        O  0.83305290  0.49537890  0.30905362    -0.60500
In152      In  0.82674923  0.32347003  0.24462302     1.36900
C153        C  0.82632805  0.35401201  0.24444412     0.77200
O154        O  0.82897663  0.32814064  0.29625112    -0.61200
O155        O  0.85034248  0.32691235  0.27366921    -0.52100
C156        C  0.79655320  0.28994469  0.24796034     0.69900
O157        O  0.79632113  0.30414086  0.24260534    -0.47000
C158        C  0.84090032  0.32686733  0.18755080     0.74600
O159        O  0.81219707  0.33856999  0.25063176    -0.58900
O160        O  0.84824264  0.32498701  0.21164058    -0.48900
O161        O  0.84061459  0.35375232  0.23888552    -0.55300
C162        C  0.84428315  0.32955686  0.29884474     0.84800
O163        O  0.81247574  0.29275111  0.25086695    -0.57200
O164        O  0.82573102  0.32544335  0.19261310    -0.60500
C165        C  0.39425023  0.46141642  0.49483040    -0.02800
C166        C  0.51615262  0.58546981  0.00732205    -0.02800
C167        C  0.57713623  0.51107567  0.51418782    -0.02800
C168        C  0.45488591  0.38846449  0.99424367    -0.02800
C169        C  0.53230859  0.46896284  0.48360009    -0.11200
C170        C  0.52815813  0.45542699  0.50594576     0.05900
C171        C  0.54132728  0.45911779  0.03081615    -0.10000
C172        C  0.55727337  0.47674812  0.03340902    -0.11600
C173        C  0.56052728  0.49089481  0.51163584    -0.01400
C174        C  0.54835283  0.48623401  0.48602447    -0.10500
C175        C  0.50978540  0.43822258  0.50537522     0.06000
H176        H  0.53859597  0.44883992  0.04824775     0.07900
H177        H  0.56672772  0.47913538  0.05213370     0.11300
H178        H  0.55081960  0.49643912  0.46862880     0.11600
H179        H  0.52282844  0.46629503  0.46462184     0.07900
C180        C  0.49459654  0.43912312  0.00780358    -0.11200
C181        C  0.47701180  0.42348915  0.00524149    -0.10500
C182        C  0.47435737  0.40605210  0.99958936    -0.01400
C183        C  0.48993658  0.40509994  0.49997253    -0.11600
C184        C  0.50760386  0.42095391  0.50302848    -0.10000
H185        H  0.49604869  0.45231042  0.01089800     0.07900
H186        H  0.46565655  0.42540278  0.00799742     0.11600
H187        H  0.48866169  0.39196374  0.49771585     0.11300
H188        H  0.51953969  0.41978636  0.50275102     0.07900
C189        C  0.54867099  0.57041327  0.03865494    -0.11200
C190        C  0.54890358  0.56021773  0.01320011     0.05900
C191        C  0.54136873  0.56045126  0.48464108    -0.10000
C192        C  0.53152535  0.56910437  0.48283752    -0.11600
C193        C  0.52956482  0.57856490  0.00902576    -0.01400
C194        C  0.53901439  0.57933081  0.03677654    -0.10500
C195        C  0.55642225  0.54835905  0.01659286     0.06000
H196        H  0.54142538  0.55267341  0.46466002     0.07900
H197        H  0.52420038  0.56775122  0.46134235     0.11300
H198        H  0.53822729  0.58585235  0.05788160     0.11600
H199        H  0.55518858  0.57070463  0.06054853     0.07900
C200        C  0.57534895  0.55536698  0.01429500    -0.11200
C201        C  0.58186234  0.54347638  0.01471101    -0.10500
C202        C  0.56956532  0.52425627  0.01665436    -0.01400
C203        C  0.55144612  0.51826294  0.52179355    -0.11600
C204        C  0.54524275  0.53025202  0.52084263    -0.10000
H205        H  0.58501019  0.56994810  0.01135621     0.07900
H206        H  0.59650932  0.54921306  0.01224983     0.11600
H207        H  0.54127777  0.50408127  0.52689580     0.11300
H208        H  0.53068797  0.52486845  0.52388199     0.07900
C209        C  0.41493535  0.39612389  0.01101481    -0.11200
C210        C  0.41847470  0.40949799  0.48906283     0.05900
C211        C  0.43131995  0.41326777  0.46522852    -0.10000
C212        C  0.44145630  0.40493860  0.46533153    -0.11600
C213        C  0.43971878  0.39333687  0.49026982    -0.01400
C214        C  0.42510645  0.38770528  0.01139037    -0.10500
C215        C  0.41172394  0.42193615  0.49346832     0.06000
H216        H  0.43432972  0.42355111  0.44762271     0.07900
H217        H  0.45206765  0.40904206  0.44767219     0.11300
H218        H  0.42159754  0.37731108  0.02891645     0.11600
H219        H  0.40449996  0.39254619  0.02881803     0.07900
C220        C  0.39368119  0.41614062  0.99322751    -0.11200
C221        C  0.38791230  0.42857504  0.99528569    -0.10500
C222        C  0.40051421  0.44748313  0.49621292    -0.01400
C223        C  0.41913865  0.45306257  0.50053692    -0.11600
C224        C  0.42462820  0.44056063  0.49845762    -0.10000
H225        H  0.38354885  0.40166951  0.99024348     0.07900
H226        H  0.37333272  0.42336527  0.99386458     0.11600
H227        H  0.42980047  0.46708763  0.50541410     0.11300
H228        H  0.43912344  0.44548296  0.50065497     0.07900
C229        C  0.44031724  0.50493688  0.47149900    -0.11200
C230        C  0.44433132  0.51654205  0.49736570     0.05900
C231        C  0.43062726  0.51156282  0.02110886    -0.10000
C232        C  0.41425126  0.49432825  0.02040586    -0.11600
C233        C  0.41122732  0.48146487  0.49580032    -0.01400
C234        C  0.42401586  0.48773663  0.47068040    -0.10500
C235        C  0.46184762  0.53439604  0.99941632     0.06000
H236        H  0.43308233  0.52076074  0.04056370     0.07900
H237        H  0.40445133  0.49126100  0.03894328     0.11300
H238        H  0.42171772  0.47881820  0.45085852     0.11600
H239        H  0.45012750  0.50884479  0.45252199     0.07900
C240        C  0.47246991  0.53854247  0.02669023    -0.11200
C241        C  0.48986975  0.55464164  0.02853045    -0.10500
C242        C  0.49682606  0.56757406  0.00384075    -0.01400
C243        C  0.48700867  0.56206334  0.47569965    -0.11600
C244        C  0.46971179  0.54585091  0.47384785    -0.10000
H245        H  0.46748666  0.52916868  0.04625334     0.07900
H246        H  0.49783782  0.55729305  0.04975887     0.11600
H247        H  0.49216117  0.57029177  0.45473132     0.11300
H248        H  0.46203688  0.54258531  0.45222847     0.07900
C249        C  0.84407406  0.43779511  0.25083192    -0.11200
C250        C  0.82763043  0.42159406  0.24233050     0.05900
C251        C  0.81213247  0.42241834  0.23498355    -0.10000
C252        C  0.81303127  0.43908526  0.23665774    -0.11600
C253        C  0.82943490  0.45515902  0.24566440    -0.01400
C254        C  0.84498476  0.45438230  0.25234234    -0.10500
C255        C  0.82677609  0.40396607  0.24174077     0.06000
H256        H  0.79934759  0.41020204  0.22795276     0.07900
H257        H  0.80086146  0.43936025  0.23130349     0.11300
H258        H  0.85779322  0.46655143  0.25948837     0.11600
H259        H  0.85616990  0.43759938  0.25713361     0.07900
C260        C  0.84190890  0.40338703  0.23073272    -0.11200
C261        C  0.84169191  0.38713481  0.23174097    -0.10500
C262        C  0.82627531  0.37104281  0.24346166    -0.01400
C263        C  0.81095990  0.37142783  0.25396046    -0.11600
C264        C  0.81123002  0.38778092  0.25319399    -0.10000
H265        H  0.85394684  0.41552260  0.22124015     0.07900
H266        H  0.85360904  0.38715718  0.22319125     0.11600
H267        H  0.79891099  0.35917893  0.26312053     0.11300
H268        H  0.79945126  0.38784801  0.26220557     0.07900
C269        C  0.44162400  0.34771907  0.13617604    -0.11200
C270        C  0.44932086  0.34653068  0.10762361     0.05900
C271        C  0.45780732  0.33635764  0.10716305    -0.10000
C272        C  0.45899875  0.32808403  0.13438519    -0.11600
C273        C  0.45210162  0.33002266  0.16305599    -0.01400
C274        C  0.44313255  0.33968091  0.16364205    -0.10500
C275        C  0.44931645  0.35642731  0.07878464     0.06000
H276        H  0.46431049  0.33537563  0.08607838     0.07900
H277        H  0.46617259  0.32089251  0.13324625     0.11300
H278        H  0.43768780  0.34139967  0.18545206     0.11600
H279        H  0.43462742  0.35506601  0.13748145     0.07900
C280        C  0.45054227  0.37331860  0.08091662    -0.11200
C281        C  0.45181609  0.38310337  0.05383600    -0.10500
C282        C  0.45171560  0.37633967  0.02350097    -0.01400
C283        C  0.45084806  0.35952442  0.02171071    -0.11600
C284        C  0.44925997  0.34962703  0.04871189    -0.10000
H285        H  0.45120522  0.37939445  0.10353591     0.07900
H286        H  0.45324116  0.39629058  0.05656548     0.11600
H287        H  0.45198567  0.35398384  0.99969535     0.11300
H288        H  0.44821071  0.33663146  0.04580738     0.07900
C289        C  0.46563174  0.34296803  0.38116327    -0.11200
C290        C  0.45088560  0.34556680  0.38375004     0.05900
C291        C  0.43721504  0.33829751  0.36048877    -0.10000
C292        C  0.43902026  0.32969863  0.33391815    -0.11600
C293        C  0.45440607  0.32810286  0.33051272    -0.01400
C294        C  0.46734715  0.33427999  0.35490763    -0.10500
C295        C  0.45086195  0.35713844  0.40946987     0.06000
H296        H  0.42571989  0.34014755  0.36206155     0.07900
H297        H  0.42886746  0.32509400  0.31540561     0.11300
H298        H  0.47930760  0.33319265  0.35303861     0.11600
H299        H  0.47620031  0.34824711  0.39906037     0.07900
C300        C  0.46663076  0.37451821  0.41463353    -0.11200
C301        C  0.46771217  0.38506009  0.44041074    -0.10500
C302        C  0.45327522  0.37819035  0.46265954    -0.01400
C303        C  0.43671935  0.36149566  0.45535972    -0.11600
C304        C  0.43560804  0.35097775  0.42931735    -0.10000
H305        H  0.47825887  0.37991415  0.39869815     0.07900
H306        H  0.48001823  0.39851953  0.44255154     0.11600
H307        H  0.42494284  0.35615286  0.47091782     0.11300
H308        H  0.42311758  0.33777510  0.42535740     0.07900
C309        C  0.72034798  0.49198376  0.26144461    -0.11200
C310        C  0.73684543  0.50900222  0.26574252     0.05900
C311        C  0.73596013  0.52481185  0.26826098    -0.10000
C312        C  0.71891025  0.52348459  0.26717740    -0.11600
C313        C  0.70245045  0.50633557  0.26363479    -0.01400
C314        C  0.70343508  0.49066448  0.26054977    -0.10500
C315        C  0.75468409  0.50989857  0.26770312     0.06000
H316        H  0.74837911  0.53812453  0.27167188     0.07900
H317        H  0.71857741  0.53581344  0.26953056     0.11300
H318        H  0.69105680  0.47727345  0.25735574     0.11600
H319        H  0.72048470  0.47957653  0.25857423     0.07900
C320        C  0.75546042  0.49594925  0.28322007    -0.11200
C321        C  0.77154976  0.49562534  0.28286910    -0.10500
C322        C  0.78741767  0.50937067  0.26740363    -0.01400
C323        C  0.78702660  0.52380211  0.25302984    -0.11600
C324        C  0.77078860  0.52403445  0.25308742    -0.10000
H325        H  0.74351111  0.48510039  0.29539713     0.07900
H326        H  0.77150471  0.48444482  0.29448295     0.11600
H327        H  0.79906829  0.53455682  0.24088584     0.11300
H328        H  0.77066954  0.53493770  0.24078685     0.07900
C329        C  0.58645934  0.41914940  0.22070476    -0.11200
C330        C  0.57767969  0.40872396  0.24769537     0.05900
C331        C  0.58590458  0.41552052  0.27715425    -0.10000
C332        C  0.60197060  0.43290854  0.27969904    -0.11600
C333        C  0.61006250  0.44373622  0.25282418    -0.01400
C334        C  0.60247083  0.43648395  0.22324704    -0.10500
C335        C  0.55919183  0.39172181  0.24530878     0.06000
H336        H  0.57938471  0.40783830  0.29838417     0.07900
H337        H  0.60757720  0.43819744  0.30278689     0.11300
H338        H  0.60851263  0.44449516  0.20211217     0.11600
H339        H  0.58061868  0.41410823  0.19764665     0.07900
C340        C  0.54588658  0.39129288  0.22560271    -0.11200
C341        C  0.52803731  0.37591218  0.22466225    -0.10500
C342        C  0.52308477  0.36059096  0.24335374    -0.01400
C343        C  0.53642512  0.36076079  0.26257132    -0.11600
C344        C  0.55433048  0.37624740  0.26365060    -0.10000
H345        H  0.54910907  0.40311280  0.21160055     0.07900
H346        H  0.51801181  0.37613912  0.20965005     0.11600
H347        H  0.53292176  0.34907982  0.27719873     0.11300
H348        H  0.56434594  0.37616942  0.27890261     0.07900
C349        C  0.60639958  0.51062879  0.36890543    -0.11200
C350        C  0.61563995  0.51389039  0.39761066     0.05900
C351        C  0.63305715  0.51601133  0.39778506    -0.10000
C352        C  0.64099508  0.51473861  0.36980690    -0.11600
C353        C  0.63151751  0.51099058  0.34122507    -0.01400
C354        C  0.61418410  0.50905575  0.34106413    -0.10500
C355        C  0.60671269  0.51420139  0.42739266     0.06000
H356        H  0.64046661  0.51856107  0.41961349     0.07900
H357        H  0.65430383  0.51615886  0.37067038     0.11300
H358        H  0.60650475  0.50606381  0.31942906     0.11600
H359        H  0.59288203  0.50873726  0.36816084     0.07900
C360        C  0.59855992  0.52457462  0.43013693    -0.11200
C361        C  0.58947969  0.52421201  0.45785485    -0.10500
C362        C  0.58830942  0.51341741  0.48376109    -0.01400
C363        C  0.59609239  0.50260864  0.48012940    -0.11600
C364        C  0.60544646  0.50328641  0.45274611    -0.10000
H365        H  0.59908535  0.53287466  0.41064631     0.07900
H366        H  0.58281568  0.53184665  0.45809902     0.11600
H367        H  0.59488998  0.49354689  0.49881217     0.11300
H368        H  0.61121098  0.49479776  0.45100480     0.07900
C369        C  0.61849110  0.52610734  0.07029308    -0.11200
C370        C  0.60996384  0.52059028  0.09980813     0.05900
C371        C  0.59103635  0.51387740  0.10196187    -0.10000
C372        C  0.58073652  0.51159102  0.07487660    -0.11600
C373        C  0.58887983  0.51530676  0.04469578    -0.01400
C374        C  0.60824999  0.52385649  0.04336390    -0.10500
C375        C  0.62068756  0.52108602  0.12773392     0.06000
H376        H  0.58402380  0.50974118  0.12441308     0.07900
H377        H  0.56612992  0.50606666  0.07732498     0.11300
H378        H  0.61578991  0.52891915  0.02157792     0.11600
H379        H  0.63320309  0.53218272  0.06796201     0.07900
C380        C  0.63347951  0.51569525  0.12478433    -0.11200
C381        C  0.64243357  0.51450687  0.15117360    -0.10500
C382        C  0.63892762  0.51878067  0.18118726    -0.01400
C383        C  0.62688077  0.52507290  0.18404951    -0.11600
C384        C  0.61777427  0.52611451  0.15762805    -0.10000
H385        H  0.63594431  0.51154930  0.10222653     0.07900
H386        H  0.65151638  0.50947247  0.14824201     0.11600
H387        H  0.62378823  0.52831817  0.20692206     0.11300
H388        H  0.60821338  0.53055572  0.16067237     0.07900
C389        C  0.46748014  0.20983653  0.21114664    -0.11200
C390        C  0.45624968  0.21264207  0.23164305     0.05900
C391        C  0.44443396  0.19828263  0.25226376    -0.10000
C392        C  0.44413179  0.18187855  0.25273401    -0.11600
C393        C  0.45596512  0.17960648  0.23321063    -0.01400
C394        C  0.46754499  0.19368852  0.21231046    -0.10500
C395        C  0.45743663  0.23064725  0.23227047     0.06000
H396        H  0.43578526  0.19982982  0.26888680     0.07900
H397        H  0.43516105  0.17125610  0.26923349     0.11300
H398        H  0.47667466  0.19219717  0.19671662     0.11600
H399        H  0.47631044  0.22007606  0.19407839     0.07900
C400        C  0.47389528  0.24695380  0.22369986    -0.11200
C401        C  0.47535891  0.26384734  0.22514368    -0.10500
C402        C  0.46057476  0.26509311  0.23580845    -0.01400
C403        C  0.44406406  0.24896426  0.24422263    -0.11600
C404        C  0.44244942  0.23192492  0.24223130    -0.10000
H405        H  0.48599838  0.24691100  0.21673215     0.07900
H406        H  0.48831261  0.27604691  0.21859340     0.11600
H407        H  0.43239557  0.24951556  0.25236438     0.11300
H408        H  0.42938097  0.21979600  0.24837293     0.07900
C409        C  0.72670226  0.20349113  0.24673158    -0.11200
C410        C  0.72880473  0.21926587  0.26083711     0.05900
C411        C  0.71367555  0.21790713  0.27649266    -0.10000
C412        C  0.69661939  0.20141397  0.27670189    -0.11600
C413        C  0.69436654  0.18587217  0.26156194    -0.01400
C414        C  0.70963130  0.18690287  0.24721561    -0.10500
C415        C  0.74634562  0.23730365  0.25783178     0.06000
H416        H  0.71495261  0.22970166  0.28817521     0.07900
H417        H  0.68509163  0.20090362  0.28826273     0.11300
H418        H  0.70819613  0.17508474  0.23532679     0.11600
H419        H  0.73806319  0.20413873  0.23428812     0.07900
C420        C  0.76347221  0.23889058  0.26023536    -0.11200
C421        C  0.77988927  0.25597921  0.25691418    -0.10500
C422        C  0.77944090  0.27173531  0.25099445    -0.01400
C423        C  0.76233957  0.27011949  0.24851126    -0.11600
C424        C  0.74599972  0.25312200  0.25186252    -0.10000
H425        H  0.76417022  0.22696004  0.26505462     0.07900
H426        H  0.79291251  0.25687946  0.25907422     0.11600
H427        H  0.76156372  0.28202864  0.24393433     0.11300
H428        H  0.73305590  0.25233018  0.24927095     0.07900
C429        C  0.56140359  0.12407267  0.24926387    -0.11200
C430        C  0.56190851  0.14044669  0.24442518     0.05900
C431        C  0.57908000  0.15687155  0.24056064    -0.10000
C432        C  0.59536192  0.15687253  0.24147012    -0.11600
C433        C  0.59473747  0.14045385  0.24621825    -0.01400
C434        C  0.57761869  0.12407276  0.25002423    -0.10500
C435        C  0.54449965  0.14018733  0.24324261     0.06000
H436        H  0.57992378  0.16967454  0.23642364     0.07900
H437        H  0.60841968  0.16969894  0.23851357     0.11300
H438        H  0.57674623  0.11122922  0.25394737     0.11600
H439        H  0.54846208  0.11124233  0.25295979     0.07900
C440        C  0.52883591  0.12539924  0.22902513    -0.11200
C441        C  0.51221442  0.12460440  0.22879381    -0.10500
C442        C  0.51088699  0.13867881  0.24243308    -0.01400
C443        C  0.52654415  0.15367044  0.25619975    -0.11600
C444        C  0.54322025  0.15440018  0.25668583    -0.10000
H445        H  0.52942881  0.11443238  0.21782974     0.07900
H446        H  0.50038907  0.11296454  0.21776409     0.11600
H447        H  0.52583325  0.16468173  0.26691672     0.11300
H448        H  0.55497976  0.16587976  0.26811892     0.07900
C449        C  0.39795876  0.82848600  0.29288159    -0.11200
C450        C  0.40248002  0.82056317  0.26852602     0.05900
C451        C  0.39033611  0.81239548  0.24311318    -0.10000
C452        C  0.37432235  0.81287916  0.24149791    -0.11600
C453        C  0.37019346  0.82143097  0.26536964    -0.01400
C454        C  0.38196652  0.82888460  0.29135574    -0.10500
C455        C  0.42058366  0.82234065  0.26836389     0.06000
H456        H  0.39362693  0.80635341  0.22392060     0.07900
H457        H  0.36545041  0.80701834  0.22121779     0.11300
H458        H  0.37906116  0.83545824  0.31019026     0.11600
H459        H  0.40703530  0.83472777  0.31283849     0.07900
C460        C  0.43656785  0.83948662  0.27436823    -0.11200
C461        C  0.45387872  0.84181945  0.27194487    -0.10500
C462        C  0.45557036  0.82703778  0.26362439    -0.01400
C463        C  0.43958455  0.80969338  0.25871002    -0.11600
C464        C  0.42219838  0.80738986  0.26086506    -0.10000
H465        H  0.43569862  0.85126322  0.27989546     0.07900
H466        H  0.46598031  0.85533068  0.27590716     0.11600
H467        H  0.44054414  0.79807157  0.25234921     0.11300
H468        H  0.41003056  0.79400900  0.25635714     0.07900
C469        C  0.20530948  0.72954966  0.25372174    -0.11200
C470        C  0.22192486  0.73088727  0.24595156     0.05900
C471        C  0.22141651  0.71500226  0.23653750    -0.10000
C472        C  0.20482340  0.69807524  0.23594268    -0.11600
C473        C  0.18828946  0.69662216  0.24448355    -0.01400
C474        C  0.18860901  0.71253554  0.25297371    -0.10500
C475        C  0.23989632  0.74851661  0.24880046     0.06000
H476        H  0.23392907  0.71564429  0.22980383     0.07900
H477        H  0.20496666  0.68606513  0.22898620     0.11300
H478        H  0.17603022  0.71175946  0.25968714     0.11600
H479        H  0.20530180  0.74154743  0.26124424     0.07900
C480        C  0.24221296  0.76510010  0.23850947    -0.11200
C481        C  0.25943860  0.78150356  0.24067457    -0.10500
C482        C  0.27458829  0.78155169  0.25313134    -0.01400
C483        C  0.27216992  0.76503864  0.26378897    -0.11600
C484        C  0.25503280  0.74874288  0.26174809    -0.10000
H485        H  0.23081351  0.76531815  0.22827985     0.07900
H486        H  0.26096770  0.79407860  0.23225621     0.11600
H487        H  0.28356348  0.76470022  0.27376962     0.11300
H488        H  0.25360276  0.73626420  0.27048172     0.07900
C489        C  0.33877593  0.45997586  0.10496310    -0.11200
C490        C  0.34895042  0.45154203  0.10681377     0.05900
C491        C  0.34993086  0.44437420  0.13582548    -0.10000
C492        C  0.34157440  0.44628296  0.16263615    -0.11600
C493        C  0.33226342  0.45557998  0.16101170    -0.01400
C494        C  0.33062183  0.46206616  0.13179762    -0.10500
C495        C  0.35949632  0.45148729  0.07902023     0.06000
H496        H  0.35749677  0.43763199  0.13791431     0.07900
H497        H  0.34318690  0.44129347  0.18492962     0.11300
H498        H  0.32363101  0.46939462  0.12991344     0.11600
H499        H  0.33790662  0.46581070  0.08306574     0.07900
C500        C  0.35184321  0.44817077  0.04889027    -0.11200
C501        C  0.36245760  0.45038093  0.02234469    -0.10500
C502        C  0.38137847  0.45669191  0.02495320    -0.01400
C503        C  0.38832575  0.45804035  0.05552821    -0.11600
C504        C  0.37767523  0.45581505  0.08212931    -0.10000
H505        H  0.33760866  0.44400578  0.04580598     0.07900
H506        H  0.35557790  0.44719204  0.99994913     0.11600
H507        H  0.40245566  0.46188526  0.05876512     0.11300
H508        H  0.38395858  0.45826708  0.10507710     0.07900
C509        C  0.36041899  0.45454285  0.34897991    -0.11200
C510        C  0.35535747  0.45777105  0.37861336     0.05900
C511        C  0.34087904  0.46090434  0.38034014    -0.10000
C512        C  0.33241130  0.46183219  0.35304558    -0.11600
C513        C  0.33816867  0.45956494  0.32341369    -0.01400
C514        C  0.35190501  0.45542357  0.32169935    -0.10500
C515        C  0.36564507  0.45873861  0.40742185     0.06000
H516        H  0.33629909  0.46298146  0.40279998     0.07900
H517        H  0.32181215  0.46497576  0.35509024     0.11300
H518        H  0.35663366  0.45362600  0.29914425     0.11600
H519        H  0.37155525  0.45220748  0.34665775     0.07900
C520        C  0.37239501  0.44720443  0.41133421    -0.11200
C521        C  0.38192409  0.44812075  0.43855536    -0.10500
C522        C  0.38444358  0.46018527  0.46339915    -0.01400
C523        C  0.37863661  0.47251228  0.45821082    -0.11600
C524        C  0.36927311  0.47168926  0.43093733    -0.10000
H525        H  0.37018089  0.43728301  0.39344161     0.07900
H526        H  0.38731851  0.43936886  0.43945448     0.11600
H527        H  0.38101620  0.48260506  0.47589432     0.11300
H528        H  0.36499671  0.48135038  0.42820923     0.07900
C529        C  0.16083185  0.55020675  0.25506171    -0.11200
C530        C  0.14515843  0.55032155  0.26440624     0.05900
C531        C  0.12962366  0.53403170  0.27536349    -0.10000
C532        C  0.12933185  0.51775782  0.27532963    -0.11600
C533        C  0.14461765  0.51744833  0.26456949    -0.01400
C534        C  0.16057773  0.53386216  0.25523729    -0.10500
C535        C  0.14456139  0.56708688  0.26157705     0.06000
H536        H  0.11753269  0.53380708  0.28350843     0.07900
H537        H  0.11695126  0.50530554  0.28309027     0.11300
H538        H  0.17254437  0.53392202  0.24689297     0.11600
H539        H  0.17298510  0.56256416  0.24643702     0.07900
C540        C  0.15984872  0.58432715  0.26970078    -0.11200
C541        C  0.15900953  0.60001091  0.26735361    -0.10500
C542        C  0.14289860  0.59871185  0.25675995    -0.01400
C543        C  0.12769523  0.58152626  0.24829078    -0.11600
C544        C  0.12852210  0.56587418  0.25064282    -0.10000
H545        H  0.17234110  0.58564278  0.27836109     0.07900
H546        H  0.17095258  0.61315093  0.27387800     0.11600
H547        H  0.11515898  0.58017413  0.23978007     0.11300
H548        H  0.11665448  0.55282854  0.24357689     0.07900
C549        C  0.20022873  0.44542519  0.24227047    -0.11200
C550        C  0.21762499  0.46186048  0.24450640     0.05900
C551        C  0.21825887  0.47828962  0.24961648    -0.10000
C552        C  0.20216000  0.47847014  0.25148476    -0.11600
C553        C  0.18481019  0.46221510  0.24870883    -0.01400
C554        C  0.18394402  0.44560059  0.24435136    -0.10500
C555        C  0.23523825  0.46234387  0.24142324     0.06000
H556        H  0.23129029  0.49114115  0.25243174     0.07900
H557        H  0.20335793  0.49149530  0.25522320     0.11300
H558        H  0.17075991  0.43285226  0.24220613     0.11600
H559        H  0.19920877  0.43250981  0.23828083     0.07900
C560        C  0.23739785  0.44864695  0.25459267    -0.11200
C561        C  0.25460560  0.45031336  0.25384806    -0.10500
C562        C  0.26997989  0.46576295  0.24017466    -0.01400
C563        C  0.26764536  0.47906536  0.22611974    -0.11600
C564        C  0.25051276  0.47729522  0.22645818    -0.10000
H565        H  0.22599133  0.43699197  0.26640050     0.07900
H566        H  0.25602400  0.43982495  0.26482658     0.11600
H567        H  0.27915252  0.49097884  0.21497530     0.11300
H568        H  0.24930487  0.48784455  0.21521401     0.07900
C569        C  0.50453594  0.72998883  0.26982435    -0.11200
C570        C  0.51816830  0.74440620  0.25138630     0.05900
C571        C  0.53168746  0.74216875  0.23708381    -0.10000
C572        C  0.53096792  0.72554262  0.24006127    -0.11600
C573        C  0.51670437  0.71090370  0.25730090    -0.01400
C574        C  0.50374722  0.71349210  0.27255458    -0.10500
C575        C  0.51752961  0.76122592  0.24667363     0.06000
H576        H  0.54238589  0.75297349  0.22274838     0.07900
H577        H  0.54116359  0.72392456  0.22804849     0.11300
H578        H  0.49273424  0.70259484  0.28635855     0.11600
H579        H  0.49424788  0.73136745  0.28205496     0.07900
C580        C  0.50038203  0.75954423  0.24386941    -0.11200
C581        C  0.49917462  0.77500128  0.24233488    -0.10500
C582        C  0.51507237  0.79269092  0.24310810    -0.01400
C583        C  0.53235879  0.79455566  0.24440920    -0.11600
C584        C  0.53358019  0.77894000  0.24617949    -0.10000
H585        H  0.48775004  0.74618090  0.24313860     0.07900
H586        H  0.48564538  0.77304865  0.24090111     0.11600
H587        H  0.54485044  0.80803454  0.24494180     0.11300
H588        H  0.54701792  0.78075020  0.24827690     0.07900
C589        C  0.51912037  0.64287815  0.39876827    -0.11200
C590        C  0.52597273  0.63126577  0.39874202     0.05900
C591        C  0.53254814  0.62844584  0.37029681    -0.10000
C592        C  0.53150201  0.63637953  0.34238721    -0.11600
C593        C  0.52374313  0.64716559  0.34235076    -0.01400
C594        C  0.51787819  0.65059769  0.37088162    -0.10500
C595        C  0.52488830  0.62105514  0.42766051     0.06000
H596        H  0.53769447  0.61941868  0.36927076     0.07900
H597        H  0.53594324  0.63335552  0.32063344     0.11300
H598        H  0.51186566  0.65888682  0.37153950     0.11600
H599        H  0.51435249  0.64574739  0.42029782     0.07900
C600        C  0.50979670  0.61458600  0.44811357    -0.11200
C601        C  0.50787825  0.60386316  0.47395667    -0.10500
C602        C  0.52046660  0.59841235  0.47957880    -0.01400
C603        C  0.53628658  0.60598725  0.46026280    -0.11600
C604        C  0.53835712  0.61702623  0.43452322    -0.10000
H605        H  0.49904488  0.61724768  0.44366644     0.07900
H606        H  0.49587353  0.59893398  0.48886997     0.11600
H607        H  0.54713375  0.60352243  0.46476714     0.11300
H608        H  0.55053269  0.62238024  0.41990107     0.07900
C609        C  0.50747481  0.63481535  0.11900636    -0.11200
C610        C  0.52113650  0.63072003  0.11496665     0.05900
C611        C  0.53471461  0.63624413  0.13815306    -0.10000
C612        C  0.53389874  0.64465872  0.16581123    -0.11600
C613        C  0.51956985  0.64777384  0.17051044    -0.01400
C614        C  0.50670271  0.64324505  0.14645081    -0.10500
C615        C  0.52009692  0.61931896  0.08795029     0.06000
H616        H  0.54535246  0.63318099  0.13562300     0.07900
H617        H  0.54393988  0.64793376  0.18406301     0.11300
H618        H  0.49552963  0.64551649  0.14936354     0.11600
H619        H  0.49702382  0.63096983  0.10127383     0.07900
C620        C  0.53567744  0.62392452  0.06986859    -0.11200
C621        C  0.53425366  0.61293816  0.04436358    -0.10500
C622        C  0.51733361  0.59673988  0.03675945    -0.01400
C623        C  0.50169650  0.59268047  0.05468783    -0.11600
C624        C  0.50314756  0.60361349  0.08005584    -0.10000
H625        H  0.54886439  0.63615513  0.07515351     0.07900
H626        H  0.54644339  0.61701636  0.03045995     0.11600
H627        H  0.48803845  0.58143664  0.04890692     0.11300
H628        H  0.49087174  0.59979606  0.09349984     0.07900
C629        C  0.39766278  0.55081527  0.22385003    -0.11200
C630        C  0.40234774  0.56143337  0.25130870     0.05900
C631        C  0.38959225  0.55536329  0.27616940    -0.10000
C632        C  0.37267415  0.53868805  0.27393932    -0.11600
C633        C  0.36820807  0.52791054  0.24671105    -0.01400
C634        C  0.38075552  0.53425714  0.22154546    -0.10500
C635        C  0.42071045  0.57851498  0.25414002     0.06000
H636        H  0.39294130  0.56325464  0.29767671     0.07900
H637        H  0.36327867  0.53403703  0.29373864     0.11300
H638        H  0.37767877  0.52621608  0.20026842     0.11600
H639        H  0.40714208  0.55529903  0.20418049     0.07900
C640        C  0.43652296  0.57880153  0.24449917    -0.11200
C641        C  0.45385817  0.59488250  0.24661604    -0.10500
C642        C  0.45571798  0.61107123  0.25801128    -0.01400
C643        C  0.43996738  0.61083393  0.26782442    -0.11600
C644        C  0.42259960  0.59462556  0.26615860    -0.10000
H645        H  0.43548175  0.56651745  0.23552375     0.07900
H646        H  0.46580331  0.59471830  0.23887596     0.11600
H647        H  0.44109360  0.62316056  0.27677854     0.11300
H648        H  0.41059884  0.59476581  0.27361147     0.07900
C649        C  0.08352235  0.44037505  0.36771279    -0.11200
C650        C  0.09278691  0.45118489  0.39416669     0.05900
C651        C  0.11215370  0.46207581  0.39345080    -0.10000
C652        C  0.12193890  0.46266274  0.36662018    -0.11600
C653        C  0.11262972  0.45236175  0.33980971    -0.01400
C654        C  0.09333455  0.44093732  0.34086665    -0.10500
C655        C  0.08237801  0.45169814  0.42194021     0.06000
H656        H  0.11975663  0.47076551  0.41318167     0.07900
H657        H  0.13677761  0.47178801  0.36642266     0.11300
H658        H  0.08575377  0.43296488  0.32047619     0.11600
H659        H  0.06864550  0.43166165  0.36761006     0.07900
C660        C  0.06633875  0.45207533  0.41811108    -0.11200
C661        C  0.05728427  0.45375669  0.44413505    -0.10500
C662        C  0.06369388  0.45474753  0.47505127    -0.01400
C663        C  0.07996304  0.45450669  0.47847376    -0.11600
C664        C  0.08895955  0.45280696  0.45248015    -0.10000
H665        H  0.06110724  0.45170872  0.39483911     0.07900
H666        H  0.04534246  0.45462826  0.44009025     0.11600
H667        H  0.08646088  0.45636186  0.50098906     0.11300
H668        H  0.10130953  0.45262574  0.45633547     0.07900
C669        C  0.07044602  0.44064814  0.07018142    -0.11200
C670        C  0.08014197  0.45600082  0.08979830     0.05900
C671        C  0.07969338  0.47167503  0.08310163    -0.10000
C672        C  0.07074273  0.47244293  0.05634986    -0.11600
C673        C  0.06260635  0.45779464  0.03459671    -0.01400
C674        C  0.06166555  0.44147796  0.04316455    -0.10500
C675        C  0.09126808  0.45607764  0.11655647     0.06000
H676        H  0.08635487  0.48343029  0.09863743     0.07900
H677        H  0.07035976  0.48462541  0.05314747     0.11300
H678        H  0.05482259  0.42959134  0.02793570     0.11600
H679        H  0.07027559  0.42824674  0.07503409     0.07900
C680        C  0.08413275  0.44139272  0.13788821    -0.11200
C681        C  0.09455169  0.44217792  0.16387517    -0.10500
C682        C  0.11236840  0.45755508  0.16873051    -0.01400
C683        C  0.11969121  0.47187338  0.14668854    -0.11600
C684        C  0.10925784  0.47117381  0.12102631    -0.10000
H685        H  0.07029449  0.42959283  0.13501287     0.07900
H686        H  0.08849023  0.43101046  0.18060806     0.11600
H687        H  0.13334615  0.48393812  0.14976963     0.11300
H688        H  0.11522895  0.48254571  0.10470163     0.07900
C689        C  0.09572102  0.60687598  0.04797231    -0.11200
C690        C  0.08715646  0.60728208  0.07576954     0.05900
C691        C  0.06784349  0.59731665  0.07728578    -0.10000
C692        C  0.05729629  0.58735833  0.05130999    -0.11600
C693        C  0.06584316  0.58744802  0.02282958    -0.01400
C694        C  0.08525310  0.59681132  0.02225884    -0.10500
C695        C  0.09840852  0.61725289  0.10356906     0.06000
H696        H  0.06086529  0.59677011  0.09890216     0.07900
H697        H  0.04253324  0.57917768  0.05425096     0.11300
H698        H  0.09237282  0.59656616  0.00136610     0.11600
H699        H  0.11058226  0.61436420  0.04602668     0.07900
C700        C  0.11404105  0.61669018  0.11075782    -0.11200
C701        C  0.12423196  0.62524348  0.13764468    -0.10500
C702        C  0.11889615  0.63434970  0.15818002    -0.01400
C703        C  0.10359681  0.63541285  0.15069448    -0.11600
C704        C  0.09345233  0.62697061  0.12350907    -0.10000
H705        H  0.11804872  0.60906305  0.09620208     0.07900
H706        H  0.13582885  0.62399420  0.14307651     0.11600
H707        H  0.09916367  0.64228418  0.16630209     0.11300
H708        H  0.08161086  0.62783239  0.11829432     0.07900
C709        C  0.10492150  0.63114260  0.38165282    -0.11200
C710        C  0.08577343  0.61907918  0.37875130     0.05900
C711        C  0.07776261  0.61573799  0.34883412    -0.10000
C712        C  0.08883065  0.62355518  0.32218741    -0.11600
C713        C  0.10807719  0.63466189  0.32506618    -0.01400
C714        C  0.11596267  0.63880908  0.35506809    -0.10500
C715        C  0.07479412  0.60865907  0.40658247     0.06000
H716        H  0.06302609  0.60662013  0.34598606     0.07900
H717        H  0.08241778  0.62013341  0.29926306     0.11300
H718        H  0.13076066  0.64730480  0.35791549     0.11600
H719        H  0.11151652  0.63380377  0.40434994     0.07900
C720        C  0.06221672  0.58964971  0.40473144    -0.11200
C721        C  0.05481882  0.57927872  0.43207605    -0.10500
C722        C  0.06045118  0.58754789  0.46194727    -0.01400
C723        C  0.07101609  0.60691634  0.46319776    -0.11600
C724        C  0.07834781  0.61727005  0.43593638    -0.10000
H725        H  0.05894293  0.58262625  0.38231905     0.07900
H726        H  0.04566170  0.56456679  0.42999586     0.11600
H727        H  0.07406247  0.61426662  0.48518114     0.11300
H728        H  0.08730033  0.63202186  0.43788224     0.07900
C729        C  0.05393847  0.53273993  0.01675893    -0.11200
C730        C  0.06371754  0.53058308  0.99258253     0.05900
C731        C  0.07199515  0.54392589  0.46763684    -0.10000
C732        C  0.06974485  0.55889974  0.46798904    -0.11600
C733        C  0.05922548  0.56080042  0.99265535    -0.01400
C734        C  0.05202992  0.54776206  0.01715051    -0.10500
C735        C  0.06237314  0.51286421  0.98968539     0.06000
H736        H  0.07978294  0.54265649  0.44884651     0.07900
H737        H  0.07677569  0.56923979  0.45010667     0.11300
H738        H  0.04403233  0.54874640  0.03588705     0.11600
H739        H  0.04719000  0.52237985  0.03483845     0.07900
C740        C  0.07761108  0.51108700  0.49135054    -0.11200
C741        C  0.07517940  0.49370192  0.49445451    -0.10500
C742        C  0.05719698  0.47770983  0.99585253    -0.01400
C743        C  0.04245880  0.47982518  0.98774099    -0.11600
C744        C  0.04495400  0.49707576  0.98561785    -0.10000
H745        H  0.09127150  0.52326560  0.49333420     0.07900
H746        H  0.08715707  0.49284338  0.49824167     0.11600
H747        H  0.02873553  0.46825513  0.98332076     0.11300
H748        H  0.03310807  0.49811988  0.98140972     0.07900
C749        C  0.86025505  0.49775109  0.39316033    -0.11200
C750        C  0.87305394  0.51491980  0.40621029     0.05900
C751        C  0.87668339  0.53084619  0.39038756    -0.10000
C752        C  0.86797167  0.52956981  0.36182729    -0.11600
C753        C  0.85534087  0.51235269  0.34881908    -0.01400
C754        C  0.85145511  0.49649208  0.36496454    -0.10500
C755        C  0.88326655  0.51593598  0.43510170     0.06000
H756        H  0.88636772  0.54428573  0.39995166     0.07900
H757        H  0.87119692  0.54199698  0.34982457     0.11300
H758        H  0.84196256  0.48301774  0.35529553     0.11600
H759        H  0.85742802  0.48522482  0.40424983     0.07900
C760        C  0.87444600  0.50308020  0.45935814    -0.11200
C761        C  0.88454103  0.50242712  0.48439813    -0.10500
C762        C  0.90386257  0.51434014  0.48569926    -0.01400
C763        C  0.91228440  0.52839668  0.46287225    -0.11600
C764        C  0.90219252  0.52895757  0.43771884    -0.10000
H765        H  0.85974002  0.49322613  0.45864444     0.07900
H766        H  0.87735062  0.49200285  0.50220259     0.11600
H767        H  0.92672855  0.53897554  0.46384459     0.11300
H768        H  0.90939703  0.53925021  0.41972302     0.07900
C769        C  0.90240472  0.53679332  0.07550365    -0.11200
C770        C  0.89085518  0.52225349  0.09561946     0.05900
C771        C  0.88809001  0.50496402  0.08987147    -0.10000
C772        C  0.89642399  0.50205719  0.06426447    -0.11600
C773        C  0.90806458  0.51647794  0.04352534    -0.01400
C774        C  0.91064431  0.53386559  0.04950464    -0.10500
C775        C  0.88057999  0.52435337  0.12158953     0.06000
H776        H  0.87903511  0.49349256  0.10494286     0.07900
H777        H  0.89283000  0.48816761  0.06024618     0.11300
H778        H  0.91889330  0.54516123  0.03361714     0.11600
H779        H  0.90450909  0.55020139  0.07925502     0.07900
C780        C  0.88973451  0.53586061  0.14735941    -0.11200
C781        C  0.87982050  0.53483825  0.17447329    -0.10500
C782        C  0.86062647  0.52245611  0.17588771    -0.01400
C783        C  0.85145277  0.51214128  0.14901483    -0.11600
C784        C  0.86132809  0.51298546  0.12229048    -0.10000
H785        H  0.90460880  0.54470817  0.14728339     0.07900
H786        H  0.88725403  0.54290679  0.19485822     0.11600
H787        H  0.83669220  0.50249551  0.14928389     0.11300
H788        H  0.85399513  0.50408537  0.10258441     0.07900
C789        C  0.96287830  0.53285245  0.47648795    -0.11200
C790        C  0.97570887  0.54603872  0.00141760     0.05900
C791        C  0.96783286  0.54785718  0.02905271    -0.10000
C792        C  0.94863624  0.53792723  0.03298374    -0.11600
C793        C  0.93683638  0.52622492  0.00895622    -0.01400
C794        C  0.94388905  0.52306772  0.48064555    -0.10500
C795        C  0.99581624  0.55412696  0.99870815     0.06000
H796        H  0.97654632  0.55620871  0.04824375     0.07900
H797        H  0.94332459  0.53888588  0.05545276     0.11300
H798        H  0.93536810  0.51348537  0.46246949     0.11600
H799        H  0.96846813  0.53062127  0.45531053     0.07900
C800        C  0.00122047  0.54175409  0.48835744    -0.11200
C801        C  0.02003004  0.54881291  0.48629334    -0.10500
C802        C  0.03418372  0.56838552  0.99520732    -0.01400
C803        C  0.02752581  0.57985152  0.00245334    -0.11600
C804        C  0.00858108  0.57268957  0.00514511    -0.10000
H805        H  0.99170058  0.52733173  0.48346009     0.07900
H806        H  0.02414750  0.53958149  0.47850640     0.11600
H807        H  0.03707714  0.59429972  0.00699556     0.11300
H808        H  0.00389457  0.58166649  0.01180898     0.07900
C809        C  0.89703420  0.35735640  0.42815241    -0.11200
C810        C  0.88738527  0.36269198  0.40928922     0.05900
C811        C  0.88768567  0.37864163  0.41687431    -0.10000
C812        C  0.89681062  0.38878393  0.44349954    -0.11600
C813        C  0.90643162  0.38357281  0.46324094    -0.01400
C814        C  0.90627453  0.36756083  0.45497732    -0.10500
C815        C  0.87575492  0.35125785  0.38294793     0.06000
H816        H  0.88022064  0.38293618  0.40264526     0.07900
H817        H  0.89521135  0.40006299  0.44906582     0.11300
H818        H  0.91298366  0.36272337  0.46990971     0.11600
H819        H  0.89679475  0.34494540  0.42286931     0.07900
C820        C  0.85737105  0.34641269  0.38178823    -0.11200
C821        C  0.84687252  0.33835420  0.35497591    -0.10500
C822        C  0.85455049  0.33500371  0.32866398    -0.01400
C823        C  0.87259996  0.33874860  0.33044617    -0.11600
C824        C  0.88314465  0.34677790  0.35757331    -0.10000
H825        H  0.85135289  0.34956023  0.40129211     0.07900
H826        H  0.83297540  0.33551304  0.35436771     0.11600
H827        H  0.87881481  0.33627163  0.31043903     0.11300
H828        H  0.89731965  0.35043009  0.35805683     0.07900
C829        C  0.89900232  0.36171621  0.06739740    -0.11200
C830        C  0.88017847  0.35556679  0.06971952     0.05900
C831        C  0.87231996  0.35955871  0.04446150    -0.10000
C832        C  0.88326516  0.37124901  0.02030569    -0.11600
C833        C  0.90244570  0.37889544  0.01956955    -0.01400
C834        C  0.90973849  0.37255253  0.04216415    -0.10500
C835        C  0.86912294  0.34616478  0.09883191     0.06000
H836        H  0.85773131  0.35412329  0.04332580     0.07900
H837        H  0.87677215  0.37486735  0.00253980     0.11300
H838        H  0.92386486  0.37621075  0.04134396     0.11600
H839        H  0.90588706  0.35880795  0.08537788     0.07900
C840        C  0.87511130  0.33843377  0.12133674    -0.11200
C841        C  0.86575209  0.33166993  0.14996285    -0.10500
C842        C  0.84981526  0.33183396  0.15634908    -0.01400
C843        C  0.84328062  0.33862667  0.13357201    -0.11600
C844        C  0.85290210  0.34595190  0.10559581    -0.10000
H845        H  0.88708950  0.33765499  0.11735868     0.07900
H846        H  0.87108315  0.32648961  0.16720603     0.11600
H847        H  0.83116918  0.33920018  0.13804907     0.11300
H848        H  0.84781020  0.35216475  0.09019271     0.07900
C849        C  0.96296981  0.41547767  0.02867135    -0.11200
C850        C  0.97353125  0.41487216  0.00382978     0.05900
C851        C  0.96493068  0.40686877  0.47642144    -0.10000
C852        C  0.94610332  0.39990248  0.47287410    -0.11600
C853        C  0.93502567  0.40064505  0.99661227    -0.01400
C854        C  0.94437811  0.40918337  0.02471032    -0.10500
C855        C  0.99398723  0.42331973  0.00709863     0.06000
H856        H  0.97256892  0.40715595  0.45593193     0.07900
H857        H  0.94033231  0.39521912  0.44976886     0.11300
H858        H  0.93699405  0.41039631  0.04428116     0.11600
H859        H  0.96886912  0.42076702  0.05152860     0.07900
C860        C  0.00417347  0.43719989  0.02941211    -0.11200
C861        C  0.02335786  0.44684630  0.02965925    -0.10500
C862        C  0.03327043  0.44400564  0.00621926    -0.01400
C863        C  0.02351540  0.42835269  0.48764197    -0.11600
C864        C  0.00418255  0.41795158  0.48841875    -0.10000
H865        H  0.99764241  0.44164192  0.04566432     0.07900
H866        H  0.03057536  0.45802960  0.04624420     0.11600
H867        H  0.03038848  0.42429282  0.47137149     0.11300
H868        H  0.99703104  0.40635522  0.47268331     0.07900
C869        C  0.91995804  0.47193973  0.03333821    -0.11200
C870        C  0.91199939  0.46030354  0.00735917     0.05900
C871        C  0.90371255  0.46396442  0.48530947    -0.10000
C872        C  0.90375805  0.48020778  0.48662971    -0.11600
C873        C  0.91277380  0.49372095  0.01141906    -0.01400
C874        C  0.92063757  0.48851079  0.03505647    -0.10500
C875        C  0.91244722  0.44338371  0.00433365     0.06000
H876        H  0.89771555  0.45503385  0.46512112     0.07900
H877        H  0.89824345  0.48331291  0.46659406     0.11300
H878        H  0.92754628  0.49750201  0.05485099     0.11600
H879        H  0.92622181  0.46849725  0.05181675     0.07900
C880        C  0.92189587  0.44079774  0.48117720    -0.11200
C881        C  0.92289556  0.42517306  0.47845937    -0.10500
C882        C  0.91310719  0.41082267  0.99805651    -0.01400
C883        C  0.90545901  0.41405868  0.02500108    -0.11600
C884        C  0.90517028  0.43007826  0.02802576    -0.10000
H885        H  0.92850554  0.45144504  0.46354075     0.07900
H886        H  0.93026247  0.42414771  0.45866657     0.11600
H887        H  0.90003576  0.40455433  0.04441909     0.11300
H888        H  0.89915408  0.43204795  0.04888250     0.07900
C889        C  0.62483898  0.09237097  0.37908654    -0.11200
C890        C  0.61523366  0.09755821  0.39916496     0.05900
C891        C  0.61394705  0.11253015  0.39030347    -0.10000
C892        C  0.62162391  0.12177566  0.36231935    -0.11600
C893        C  0.63039199  0.11608214  0.34171352    -0.01400
C894        C  0.63216151  0.10142631  0.35040936    -0.10500
C895        C  0.60537775  0.08687504  0.42798971     0.06000
H896        H  0.60624949  0.11675286  0.40415716     0.07900
H897        H  0.61987778  0.13292677  0.35615276     0.11300
H898        H  0.63893233  0.09682048  0.33490787     0.11600
H899        H  0.62652179  0.08119780  0.38518498     0.07900
C900        C  0.59822560  0.06796185  0.43001867    -0.11200
C901        C  0.58690911  0.05762002  0.45517755    -0.10500
C902        C  0.58152202  0.06566408  0.47830807    -0.01400
C903        C  0.58991231  0.08487246  0.47726389    -0.11600
C904        C  0.60176978  0.09527439  0.45290833    -0.10000
H905        H  0.60079297  0.06087679  0.41171218     0.07900
H906        H  0.58234347  0.04330660  0.45577672     0.11600
H907        H  0.58693072  0.09185526  0.49521266     0.11300
H908        H  0.60779656  0.10993744  0.45350025     0.07900
C909        C  0.61857571  0.08673058  0.13683103    -0.11200
C910        C  0.61510982  0.09538601  0.11245076     0.05900
C911        C  0.62173530  0.11412204  0.11482071    -0.10000
C912        C  0.63069165  0.12383876  0.14195290    -0.11600
C913        C  0.63291820  0.11491070  0.16744593    -0.01400
C914        C  0.62731893  0.09641311  0.16431235    -0.10500
C915        C  0.60288898  0.08464922  0.08620102     0.06000
H916        H  0.61928284  0.12105233  0.09611999     0.07900
H917        H  0.63483904  0.13806827  0.14368997     0.11300
H918        H  0.62883112  0.08920489  0.18367502     0.11600
H919        H  0.61350474  0.07225153  0.13539761     0.07900
C920        C  0.60689975  0.07423025  0.06643296    -0.11200
C921        C  0.59538943  0.06469489  0.04105459    -0.10500
C922        C  0.57920582  0.06479366  0.03542441    -0.01400
C923        C  0.57548181  0.07547153  0.05567636    -0.11600
C924        C  0.58711267  0.08514760  0.08066008    -0.10000
H925        H  0.61915846  0.07385708  0.07016638     0.07900
H926        H  0.59914621  0.05724595  0.02547682     0.11600
H927        H  0.56408060  0.07718796  0.05188245     0.11300
H928        H  0.58387025  0.09324618  0.09561580     0.07900
C929        C  0.44147795  0.06045741  0.07504082    -0.11200
C930        C  0.44039528  0.07607687  0.07276920     0.05900
C931        C  0.44054162  0.08290902  0.04287985    -0.10000
C932        C  0.44201322  0.07455556  0.01589449    -0.11600
C933        C  0.44275298  0.05857465  0.01766202    -0.01400
C934        C  0.44288692  0.05201136  0.04798547    -0.10500
C935        C  0.44076055  0.08620400  0.10136362     0.06000
H936        H  0.43989838  0.09503483  0.04032021     0.07900
H937        H  0.44320636  0.08129720  0.99391661     0.11300
H938        H  0.44423804  0.04031655  0.05072191     0.11600
H939        H  0.44192101  0.05514308  0.09781173     0.07900
C940        C  0.45200057  0.10542553  0.10205444    -0.11200
C941        C  0.45361429  0.11511427  0.12938663    -0.10500
C942        C  0.44406774  0.10585440  0.15678854    -0.01400
C943        C  0.43232451  0.08667068  0.15598950    -0.11600
C944        C  0.43070037  0.07691681  0.12849317    -0.10000
H945        H  0.46016657  0.11298810  0.08178039     0.07900
H946        H  0.46290963  0.12986963  0.12935732     0.11600
H947        H  0.42490877  0.07917970  0.17686407     0.11300
H948        H  0.42181276  0.06212138  0.12856288     0.07900
C949        C  0.45789534  0.07619208  0.41028405    -0.11200
C950        C  0.44204879  0.07671836  0.40543292     0.05900
C951        C  0.42689599  0.06670881  0.42541627    -0.10000
C952        C  0.42818984  0.05755641  0.45135388    -0.11600
C953        C  0.44477543  0.05844594  0.45825189    -0.01400
C954        C  0.45911138  0.06685639  0.43586985    -0.10500
C955        C  0.44188429  0.08822586  0.37997133     0.06000
H956        H  0.41436308  0.06658705  0.42171778     0.07900
H957        H  0.41650352  0.05046774  0.46710622     0.11300
H958        H  0.47139121  0.06641698  0.43766731     0.11600
H959        H  0.46944304  0.08312785  0.39420666     0.07900
C960        C  0.45673885  0.10640096  0.37707338    -0.11200
C961        C  0.45827376  0.11679190  0.35094540    -0.10500
C962        C  0.44507783  0.10916426  0.32695491    -0.01400
C963        C  0.42952633  0.09136955  0.33078549    -0.11600
C964        C  0.42787066  0.08099040  0.35731170    -0.10000
H965        H  0.46753340  0.11234957  0.39456784     0.07900
H966        H  0.47038013  0.13048021  0.34872159     0.11600
H967        H  0.41916965  0.08517153  0.31260078     0.11300
H968        H  0.41624994  0.06700407  0.35920619     0.07900
C969        C  0.48353444  0.03833090  0.50504379    -0.11200
C970        C  0.49940717  0.05558912  0.00063386     0.05900
C971        C  0.49823626  0.07102119  0.99563041    -0.10000
C972        C  0.48099321  0.06912472  0.99301127    -0.11600
C973        C  0.46450833  0.05162074  0.99307505    -0.01400
C974        C  0.46652398  0.03645079  0.50128923    -0.10500
C975        C  0.51738051  0.05699661  0.00260133     0.06000
H976        H  0.51063908  0.08453370  0.99404612     0.18700
H977        H  0.48051252  0.08129473  0.98965190     0.11300
H978        H  0.45456462  0.02286744  0.50481107     0.11600
H979        H  0.48390460  0.02618633  0.50960008     0.07900
C980        C  0.52054818  0.04794928  0.02664130    -0.11200
C981        C  0.53669509  0.04776256  0.02716037    -0.10500
C982        C  0.55038507  0.05672009  0.00375781    -0.01400
C983        C  0.54705657  0.06508932  0.48028252    -0.11600
C984        C  0.53109006  0.06570946  0.48054724    -0.10000
H985        H  0.51040595  0.04086442  0.04502772     0.07900
H986        H  0.53859894  0.04058777  0.04609457     0.11600
H987        H  0.55629768  0.07143502  0.46062241     0.11300
H988        H  0.52878030  0.07255646  0.46153610     0.07900
C989        C  0.34456490  0.88181627  0.45312955    -0.11200
C990        C  0.35133447  0.88664381  0.42235857     0.05900
C991        C  0.36963109  0.90111327  0.41780465    -0.10000
C992        C  0.38115567  0.90990240  0.44334171    -0.11600
C993        C  0.37501192  0.90419864  0.47439961    -0.01400
C994        C  0.35610628  0.89068639  0.47879723    -0.10500
C995        C  0.34012662  0.87578628  0.39497632     0.06000
H996        H  0.37536447  0.90518032  0.39438790     0.07900
H997        H  0.39528672  0.92075111  0.43879992     0.11300
H998        H  0.34995561  0.88677981  0.50185486     0.11600
H999        H  0.33034319  0.87109692  0.45735442     0.07900
C1000       C  0.32985120  0.85652463  0.39616300    -0.11200
C1001       C  0.32321427  0.84624992  0.36852866    -0.10500
C1002       C  0.32667699  0.85507954  0.33936316    -0.01400
C1003       C  0.33513570  0.87418771  0.33857911    -0.11600
C1004       C  0.34179476  0.88445014  0.36615430    -0.10000
H1005       H  0.32830183  0.84942941  0.41799301     0.07900
H1006       H  0.31659754  0.83150261  0.36976758     0.11600
H1007       H  0.33783927  0.88133284  0.31641929     0.11300
H1008       H  0.34923415  0.89926053  0.36465269     0.07900
C1009       C  0.36448858  0.88828624  0.15027783    -0.11200
C1010       C  0.35606199  0.88007663  0.12158635     0.05900
C1011       C  0.34006258  0.86243171  0.12167691    -0.10000
C1012       C  0.33315738  0.85277285  0.14970297    -0.11600
C1013       C  0.34211632  0.86056630  0.17819540    -0.01400
C1014       C  0.35758248  0.87857673  0.17839132    -0.10500
C1015       C  0.36457261  0.88916652  0.09139947     0.06000
H1016       H  0.33313853  0.85593315  0.09990033     0.07900
H1017       H  0.32112044  0.83896442  0.14893035     0.11300
H1018       H  0.36470808  0.88491301  0.20011066     0.11600
H1019       H  0.37688048  0.90184641  0.15081762     0.07900
C1020       C  0.37146268  0.90782494  0.08669616    -0.11200
C1021       C  0.37936573  0.91612342  0.05788174    -0.10500
C1022       C  0.38022557  0.90581151  0.03276568    -0.01400
C1023       C  0.37413315  0.88731608  0.03859205    -0.11600
C1024       C  0.36625753  0.87909307  0.06722653    -0.10000
H1025       H  0.37067739  0.91598931  0.10529057     0.07900
H1026       H  0.38503886  0.93064476  0.05595335     0.11600
H1027       H  0.37526426  0.87910007  0.02049466     0.11300
H1028       H  0.36164085  0.86482392  0.07059224     0.07900
C1029       C  0.40625852  0.99943343  0.00576606    -0.11200
C1030       C  0.41011967  0.99028166  0.98267538     0.05900
C1031       C  0.42234029  0.00031607  0.45975900    -0.10000
C1032       C  0.43220615  0.01936461  0.45997931    -0.11600
C1033       C  0.43034782  0.02891541  0.98445075    -0.01400
C1034       C  0.41601973  0.01863323  0.00630202    -0.10500
C1035       C  0.40430544  0.97087940  0.98667501     0.06000
H1036       H  0.42490987  0.99337931  0.44111193     0.07900
H1037       H  0.44235027  0.02658062  0.44165788     0.11300
H1038       H  0.41297276  0.02512700  0.02495017     0.11600
H1039       H  0.39670887  0.99184037  0.02466699     0.07900
C1040       C  0.41768455  0.96596629  0.48499794    -0.11200
C1041       C  0.41288352  0.94798589  0.48951462    -0.10500
C1042       C  0.39482432  0.93434030  0.99691572    -0.01400
C1043       C  0.38153541  0.93920827  0.99979108    -0.11600
C1044       C  0.38630676  0.95732159  0.99541337    -0.10000
H1045       H  0.43173120  0.97608754  0.47824261     0.07900
H1046       H  0.42336821  0.94503987  0.48442076     0.11600
H1047       H  0.36741726  0.92889891  0.00574316     0.11300
H1048       H  0.37590649  0.96067687  0.99838836     0.07900
C1049       C  0.53535222  0.89328818  0.35869920    -0.11200
C1050       C  0.52563257  0.88333038  0.38555357     0.05900
C1051       C  0.51738283  0.86424601  0.38564373    -0.10000
C1052       C  0.51763126  0.85509573  0.35868839    -0.11600
C1053       C  0.52588845  0.86480349  0.33084364    -0.01400
C1054       C  0.53541045  0.88407763  0.33144022    -0.10500
C1055       C  0.52177875  0.89220052  0.41176829     0.06000
H1056       H  0.50988878  0.85631550  0.40615198     0.07900
H1057       H  0.51020304  0.84026117  0.35904687     0.11300
H1058       H  0.54183847  0.89192102  0.31032793     0.11600
H1059       H  0.54177107  0.90802845  0.35810786     0.07900
C1060       C  0.53582951  0.90558882  0.43084173    -0.11200
C1061       C  0.53154442  0.91297934  0.45647782    -0.10500
C1062       C  0.51318888  0.90785077  0.46283376    -0.01400
C1063       C  0.49923313  0.89411602  0.44357160    -0.11600
C1064       C  0.50349777  0.88654281  0.41845372    -0.10000
H1065       H  0.55002696  0.90992487  0.42645294     0.07900
H1066       H  0.54261018  0.92279744  0.47149400     0.11600
H1067       H  0.48482303  0.88851289  0.44839165     0.11300
H1068       H  0.49239983  0.87598957  0.40433458     0.07900
C1069       C  0.50196593  0.87786789  0.04908721    -0.11200
C1070       C  0.51474248  0.88741625  0.07321448     0.05900
C1071       C  0.52720242  0.90639712  0.06950604    -0.10000
C1072       C  0.52624729  0.91567405  0.04335190    -0.11600
C1073       C  0.51223821  0.90640870  0.02070149    -0.01400
C1074       C  0.50077277  0.88716671  0.02334775    -0.10500
C1075       C  0.51454596  0.87768652  0.10244263     0.06000
H1076       H  0.53743703  0.91429878  0.08724128     0.07900
H1077       H  0.53641277  0.93016650  0.04145881     0.11300
H1078       H  0.49029388  0.87933533  0.00591052     0.11600
H1079       H  0.49264740  0.86314471  0.05015433     0.07900
C1080       C  0.49785057  0.86274895  0.11398660    -0.11200
C1081       C  0.49736054  0.85384989  0.14166060    -0.10500
C1082       C  0.51346711  0.85979027  0.15901561    -0.01400
C1083       C  0.53018441  0.87468360  0.14776398    -0.11600
C1084       C  0.53075266  0.88343729  0.11965670    -0.10000
H1085       H  0.48497199  0.85814733  0.10214550     0.07900
H1086       H  0.48419868  0.84258187  0.14995708     0.11600
H1087       H  0.54280802  0.87958124  0.16071840     0.11300
H1088       H  0.54393212  0.89467303  0.11143861     0.07900
C1089       C  0.53807423  0.96708379  0.47115991    -0.11200
C1090       C  0.53704711  0.97603796  0.99947530     0.05900
C1091       C  0.52733919  0.96474209  0.02506036    -0.10000
C1092       C  0.51917666  0.94578809  0.02303546    -0.11600
C1093       C  0.52082210  0.93738071  0.99567615    -0.01400
C1094       C  0.52991821  0.94805020  0.46919735    -0.10500
C1095       C  0.54491833  0.99611984  0.00117752     0.06000
H1096       H  0.52547701  0.97050008  0.04633317     0.07900
H1097       H  0.51109755  0.93751420  0.04284019     0.11300
H1098       H  0.53046924  0.94246574  0.44677545     0.11600
H1099       H  0.54521007  0.97542197  0.45080120     0.07900
C1100       C  0.55467693  0.00536525  0.52743389    -0.11200
C1101       C  0.56219458  0.02426685  0.52934072    -0.10500
C1102       C  0.56027647  0.03463025  0.00425862    -0.01400
C1103       C  0.54995172  0.02419153  0.97798276    -0.11600
C1104       C  0.54270494  0.00534482  0.97621991    -0.10000
H1105       H  0.55650234  0.99850572  0.54699498     0.07900
H1106       H  0.56890660  0.03094780  0.55103964     0.11600
H1107       H  0.54772284  0.03079633  0.95847157     0.11300
H1108       H  0.53506753  0.99790544  0.95548830     0.07900
C1109       C  0.43535400  0.91953172  0.02101258    -0.11200
C1110       C  0.43782398  0.90996943  0.99687717     0.05900
C1111       C  0.42363621  0.90046389  0.47462446    -0.10000
C1112       C  0.40772693  0.90116007  0.47614187    -0.11600
C1113       C  0.40590647  0.91201129  0.99847968    -0.01400
C1114       C  0.41967643  0.92055820  0.02179318    -0.10500
C1115       C  0.45495019  0.90984030  0.99512373     0.06000
H1116       H  0.42504202  0.89274650  0.45591179     0.07900
H1117       H  0.39722544  0.89336434  0.45885867     0.11300
H1118       H  0.41841034  0.92842056  0.04038034     0.11600
H1119       H  0.44580469  0.92661638  0.03884712     0.07900
C1120       C  0.46598784  0.91615772  0.96810957    -0.11200
C1121       C  0.48296509  0.91756316  0.96740752    -0.10500
C1122       C  0.48909686  0.91195798  0.99322277    -0.01400
C1123       C  0.47767541  0.90523393  0.52039976    -0.11600
C1124       C  0.46094801  0.90434699  0.52155340    -0.10000
H1125       H  0.46180512  0.92071882  0.94799476     0.07900
H1126       H  0.49157075  0.92336437  0.94675310     0.11600
H1127       H  0.48229492  0.90231158  0.54186931     0.11300
H1128       H  0.45309668  0.90023940  0.54322175     0.07900
C1129       C  0.50907221  0.91612901  0.99309108    -0.02800
C1130       C  0.38880330  0.91382491  0.50180147    -0.02800
C1131       C  0.44605899  0.04961721  0.48905306    -0.02800
C1132       C  0.56795873  0.05483702  0.50561798    -0.02800
C1133       C  0.91465047  0.39305068  0.49531278    -0.02800
C1134       C  0.91467820  0.51200664  0.51247576    -0.02800
C1135       C  0.05407918  0.57548338  0.49180756    -0.02800
C1136       C  0.05444111  0.45857481  0.50299628    -0.02800
In1137     In  0.50718073  0.65791307  0.75877614     1.36900
C1138       C  0.47407060  0.62711753  0.76147484     0.77200
O1139       O  0.50104484  0.65195056  0.70790101    -0.61200
O1140       O  0.52660765  0.65682166  0.72441870    -0.52100
C1141       C  0.51348939  0.69187420  0.75816403     0.69900
O1142       O  0.49891313  0.67801023  0.76839719    -0.47000
C1143       C  0.52001542  0.65341909  0.81251943     0.74600
O1144       O  0.47611544  0.64260893  0.75771495    -0.58900
O1145       O  0.52539557  0.65136910  0.78610818    -0.48900
O1146       O  0.48888757  0.62756804  0.76409660    -0.55300
C1147       C  0.51558019  0.65226886  0.70166939     0.84800
O1148       O  0.52536817  0.68854257  0.74863379    -0.57200
O1149       O  0.50949383  0.65940978  0.81123921    -0.60500
In1150     In  0.14018493  0.46850556  0.75406461     1.36900
C1151       C  0.14342647  0.50063621  0.76151279     0.77200
O1152       O  0.13841676  0.47554646  0.70421313    -0.61200
O1153       O  0.11781880  0.44912964  0.71990980    -0.52100
C1154       C  0.16916360  0.46461858  0.75006233     0.69900
O1155       O  0.17034979  0.47976745  0.75178910    -0.47000
C1156       C  0.12325194  0.45641188  0.80946346     0.74600
O1157       O  0.15711092  0.49941961  0.75516904    -0.58900
O1158       O  0.11549870  0.44896818  0.78379836    -0.48900
O1159       O  0.12839536  0.48551651  0.76416342    -0.55300
C1160       C  0.12350908  0.46085528  0.69815180     0.84800
O1161       O  0.15279747  0.45092190  0.75048973    -0.57200
O1162       O  0.14019934  0.46837895  0.80687994    -0.60500
In1163     In  0.32241589  0.47312565  0.74430025     1.36900
C1164       C  0.35284169  0.50649995  0.74795554     0.77200
O1165       O  0.32259665  0.47165603  0.79702332    -0.61200
O1166       O  0.33075198  0.45620990  0.77078513    -0.52100
C1167       C  0.28854937  0.46745918  0.74199421     0.69900
O1168       O  0.30280388  0.48174649  0.73202757    -0.47000
C1169       C  0.32646531  0.46117387  0.68907400     0.74600
O1170       O  0.33751171  0.50311718  0.75809516    -0.58900
O1171       O  0.32312334  0.45200414  0.71401073    -0.48900
O1172       O  0.35237032  0.49295813  0.73587430    -0.55300
C1173       C  0.32909899  0.46155882  0.79747531     0.84800
O1174       O  0.29147951  0.45564876  0.75291091    -0.57200
O1175       O  0.32592755  0.47541933  0.69208180    -0.60500
In1176     In  0.13906907  0.64496860  0.74579542     1.36900
C1177       C  0.14026647  0.61516718  0.75456688     0.77200
O1178       O  0.13664924  0.64761044  0.79770151    -0.61200
O1179       O  0.11272349  0.63768325  0.76991112    -0.52100
C1180       C  0.16965312  0.67807692  0.74199572     0.69900
O1181       O  0.16938597  0.66339167  0.73986966    -0.47000
C1182       C  0.12578725  0.63941189  0.68815514     0.74600
O1183       O  0.15378401  0.63110200  0.76009787    -0.58900
O1184       O  0.12029593  0.64551957  0.70962547    -0.48900
O1185       O  0.12601655  0.61450919  0.74532732    -0.55300
C1186       C  0.11954311  0.64098344  0.79706764     0.84800
O1187       O  0.15405258  0.67593700  0.74616742    -0.57200
O1188       O  0.13892061  0.63769168  0.69578183    -0.60500
In1189     In  0.50693065  0.83601106  0.74789206     1.36900
C1190       C  0.47357163  0.82931204  0.76040453     0.77200
O1191       O  0.51024369  0.83689682  0.80018994    -0.61200
O1192       O  0.52600563  0.86191172  0.77553840    -0.52100
C1193       C  0.51258067  0.80832324  0.74409725     0.69900
O1194       O  0.49700145  0.80634387  0.74575177    -0.47000
C1195       C  0.51174280  0.85083574  0.69051422     0.74600
O1196       O  0.47646168  0.81670719  0.75466692    -0.58900
O1197       O  0.52460143  0.85713231  0.71038977    -0.48900
O1198       O  0.48777367  0.84525124  0.75985471    -0.55300
C1199       C  0.52085079  0.85405728  0.80189164     0.84800
O1200       O  0.52582205  0.82487457  0.74376201    -0.57200
O1201       O  0.49719606  0.83653094  0.69938351    -0.60500
In1202     In  0.32596340  0.82672290  0.75811057     1.36900
C1203       C  0.35360600  0.82128121  0.76394566     0.77200
O1204       O  0.32252591  0.83122280  0.70741049    -0.61200
O1205       O  0.34387137  0.85345713  0.73306382    -0.52100
C1206       C  0.29269489  0.79660522  0.75283751     0.69900
O1207       O  0.30686445  0.79632149  0.75917009    -0.47000
C1208       C  0.32415814  0.84291806  0.80990543     0.74600
O1209       O  0.34283448  0.81529177  0.74082071    -0.58900
O1210       O  0.32727230  0.85025311  0.78316616    -0.48900
O1211       O  0.35007102  0.82980178  0.78379853    -0.55300
C1212       C  0.33579703  0.84767590  0.70711123     0.84800
O1213       O  0.29551754  0.81244622  0.74963378    -0.57200
O1214       O  0.32047869  0.82668074  0.80971499    -0.60500
In1215     In  0.64264361  0.13955931  0.75374058     1.36900
C1216       C  0.61236555  0.14025894  0.74801581     0.77200
O1217       O  0.64344027  0.14042685  0.70149979    -0.61200
O1218       O  0.63763661  0.11583555  0.72358618    -0.52100
C1219       C  0.67621652  0.16920301  0.75913538     0.69900
O1220       O  0.66176427  0.16925896  0.76369353    -0.47000
C1221       C  0.63650580  0.12482193  0.81049668     0.74600
O1222       O  0.62824078  0.15449228  0.74511889    -0.58900
O1223       O  0.64187693  0.11906356  0.78818413    -0.48900
O1224       O  0.61212974  0.12573526  0.75297216    -0.55300
C1225       C  0.63872181  0.12394786  0.69824986     0.84800
O1226       O  0.67355933  0.15377297  0.75185791    -0.57200
O1227       O  0.63536095  0.13834210  0.80370397    -0.60500
In1228     In  0.46193716  0.13539326  0.74065958     1.36900
C1229       C  0.49433997  0.13834663  0.74343700     0.77200
O1230       O  0.46449316  0.13490607  0.79251538    -0.61200
O1231       O  0.44040553  0.11277998  0.77154207    -0.52100
C1232       C  0.45841877  0.16419466  0.73510815     0.69900
O1233       O  0.47239222  0.16423776  0.72595143    -0.47000
C1234       C  0.44994137  0.11726963  0.68668636     0.74600
O1235       O  0.49218602  0.15092932  0.75305255    -0.58900
O1236       O  0.44251273  0.10996973  0.71265400    -0.48900
O1237       O  0.48001228  0.12453086  0.73269453    -0.55300
C1238       C  0.44986910  0.11947547  0.79617357     0.84800
O1239       O  0.44593406  0.14921610  0.74693227    -0.57200
O1240       O  0.46230234  0.13404969  0.68842173    -0.60500
In1241     In  0.65083190  0.49971367  0.76095235     1.36900
C1242       C  0.62577632  0.46395016  0.75585268     0.77200
O1243       O  0.65563233  0.51269407  0.80946027    -0.61200
O1244       O  0.62936310  0.50113756  0.78869451    -0.52100
C1245       C  0.68459844  0.50507122  0.76490528     0.69900
O1246       O  0.66985192  0.48959303  0.76600610    -0.47000
C1247       C  0.64600094  0.51450625  0.70950368     0.74600
O1248       O  0.63246363  0.47156470  0.78187619    -0.58900
O1249       O  0.64356518  0.51841308  0.73690158    -0.48900
O1250       O  0.63249636  0.47448367  0.73257764    -0.55300
C1251       C  0.63926805  0.50881623  0.81242690     0.84800
O1252       O  0.68223002  0.51828124  0.76241722    -0.57200
O1253       O  0.65293353  0.50481653  0.70867773    -0.60500
In1254     In  0.46987874  0.31762963  0.74361151     1.36900
C1255       C  0.50505268  0.34512751  0.74228504     0.77200
O1256       O  0.46462205  0.31545600  0.69178566    -0.61200
O1257       O  0.45533182  0.32956693  0.71906352    -0.52100
C1258       C  0.46352651  0.28383711  0.73736218     0.69900
O1259       O  0.47832123  0.29823373  0.72964958    -0.47000
C1260       C  0.45960157  0.32343766  0.79951881     0.74600
O1261       O  0.49969653  0.33053632  0.75725553    -0.58900
O1262       O  0.44897615  0.31792836  0.77611017    -0.48900
O1263       O  0.49246493  0.34548205  0.72797583    -0.55300
C1264       C  0.45734262  0.32485317  0.69200767     0.84800
O1265       O  0.45150536  0.28656633  0.74841879    -0.57200
O1266       O  0.47460386  0.32448512  0.79471009    -0.60500
In1267     In  0.83322528  0.50496661  0.76024334     1.36900
C1268       C  0.83041477  0.47316953  0.75060025     0.77200
O1269       O  0.83387145  0.50604205  0.70786091    -0.61200
O1270       O  0.85830350  0.52531310  0.73188790    -0.52100
C1271       C  0.80453363  0.50904947  0.76622346     0.69900
O1272       O  0.80352371  0.49409101  0.77024465    -0.47000
C1273       C  0.84822242  0.51186359  0.81729270     0.74600
O1274       O  0.81676666  0.47488083  0.74766398    -0.58900
O1275       O  0.85426252  0.52415358  0.79639336    -0.48900
O1276       O  0.84524696  0.48771881  0.75782062    -0.55300
C1277       C  0.85070348  0.51842391  0.70583429     0.84800
O1278       O  0.82047174  0.52228553  0.75928379    -0.57200
O1279       O  0.83404482  0.49691542  0.80945835    -0.60500
In1280     In  0.82660946  0.32383422  0.74403774     1.36900
C1281       C  0.82644950  0.35454922  0.74434140     0.77200
O1282       O  0.82841422  0.32680793  0.79625739    -0.61200
O1283       O  0.85082092  0.32824677  0.77229309    -0.52100
C1284       C  0.79631321  0.29037381  0.74661922     0.69900
O1285       O  0.79611349  0.30463987  0.74178965    -0.47000
C1286       C  0.84032352  0.32656403  0.68676810     0.74600
O1287       O  0.81237394  0.33916966  0.75101815    -0.58900
O1288       O  0.84736109  0.32411704  0.71071601    -0.48900
O1289       O  0.84059629  0.35416628  0.73806841    -0.55300
C1290       C  0.84423419  0.32932121  0.79815452     0.84800
O1291       O  0.81221382  0.29311263  0.74938291    -0.57200
O1292       O  0.82569098  0.32618774  0.69211005    -0.60500
C1293       C  0.39426352  0.46136599  0.99597891    -0.02800
C1294       C  0.51656996  0.58517899  0.50722850    -0.02800
C1295       C  0.57690429  0.51116377  0.01473583    -0.02800
C1296       C  0.45459509  0.38842460  0.49361132    -0.02800
C1297       C  0.53262806  0.46845909  0.98412169    -0.11200
C1298       C  0.52858973  0.45510330  0.00676990     0.05900
C1299       C  0.54090744  0.45915168  0.52983034    -0.10000
C1300       C  0.55701230  0.47664935  0.53255194    -0.11600
C1301       C  0.56058648  0.49083988  0.01225875    -0.01400
C1302       C  0.54846273  0.48587884  0.98650659    -0.10500
C1303       C  0.51019584  0.43793174  0.00655837     0.06000
H1304       H  0.53809475  0.44872661  0.54700344     0.07900
H1305       H  0.56647180  0.47880388  0.55113355     0.11300
H1306       H  0.55077017  0.49595777  0.96895818     0.11600
H1307       H  0.52314182  0.46556864  0.96504309     0.07900
C1308       C  0.49410792  0.43928642  0.50648566    -0.11200
C1309       C  0.47657156  0.42356540  0.50389450    -0.10500
C1310       C  0.47404157  0.40615417  0.49846619    -0.01400
C1311       C  0.49016368  0.40483957  0.00102682    -0.11600
C1312       C  0.50788914  0.42060931  0.00418120    -0.10000
H1313       H  0.49545483  0.45242500  0.50955560     0.07900
H1314       H  0.46515307  0.42538981  0.50655303     0.11600
H1315       H  0.48877947  0.39166469  0.99853879     0.11300
H1316       H  0.51976748  0.41934556  0.00380090     0.07900
C1317       C  0.54947604  0.57061717  0.53832528    -0.11200
C1318       C  0.55022583  0.56095452  0.51248801     0.05900
C1319       C  0.53984369  0.55951474  0.98547847    -0.10000
C1320       C  0.53036072  0.56853594  0.98339857    -0.11600
C1321       C  0.53025477  0.57863352  0.50881312    -0.01400
C1322       C  0.53951539  0.57921705  0.53667918    -0.10500
C1323       C  0.55757036  0.54897297  0.51584892     0.06000
H1324       H  0.53957642  0.55141897  0.96574187     0.07900
H1325       H  0.52293468  0.56708731  0.96198509     0.11300
H1326       H  0.53829257  0.58527848  0.55803097     0.11600
H1327       H  0.55575744  0.57064972  0.56033948     0.07900
C1328       C  0.57644096  0.55574535  0.51340189    -0.11200
C1329       C  0.58270433  0.54365052  0.51403499    -0.10500
C1330       C  0.57018387  0.52447413  0.51620008    -0.01400
C1331       C  0.55073180  0.51775354  0.02199043    -0.11600
C1332       C  0.54427427  0.52955631  0.02120620    -0.10000
H1333       H  0.58623768  0.57028039  0.51024419     0.07900
H1334       H  0.59730551  0.54917696  0.51147671     0.11600
H1335       H  0.54069209  0.50349397  0.02677516     0.11300
H1336       H  0.52966766  0.52396350  0.02406077     0.07900
C1337       C  0.41449082  0.39578927  0.51103480    -0.11200
C1338       C  0.41933427  0.41016353  0.98951087     0.05900
C1339       C  0.43238482  0.41407241  0.96599597    -0.10000
C1340       C  0.44229490  0.40550615  0.96602551    -0.11600
C1341       C  0.44016497  0.39356772  0.99066775    -0.01400
C1342       C  0.42486010  0.38757628  0.51143287    -0.10500
C1343       C  0.41248332  0.42251836  0.99387357     0.06000
H1344       H  0.43567384  0.42456998  0.94867459     0.07900
H1345       H  0.45306104  0.40969789  0.94863554     0.11300
H1346       H  0.42166978  0.37744414  0.52931059     0.11600
H1347       H  0.40426357  0.39235668  0.52916616     0.07900
C1348       C  0.39296628  0.41576350  0.49264205    -0.11200
C1349       C  0.38740920  0.42839206  0.49439550    -0.10500
C1350       C  0.40084185  0.44769860  0.99714833    -0.01400
C1351       C  0.41953973  0.45351441  0.00127917    -0.11600
C1352       C  0.42524820  0.44118225  0.99893143    -0.10000
H1353       H  0.38272331  0.40132280  0.48968199     0.07900
H1354       H  0.37287472  0.42336212  0.49280612     0.11600
H1355       H  0.43006360  0.46758588  0.00619237     0.11300
H1356       H  0.43978029  0.44625589  0.00103599     0.07900
C1357       C  0.43987948  0.50515464  0.97158144    -0.11200
C1358       C  0.44377334  0.51692711  0.99714798     0.05900
C1359       C  0.43120661  0.51113329  0.52137322    -0.10000
C1360       C  0.41467514  0.49404436  0.52029363    -0.11600
C1361       C  0.41101004  0.48155732  0.99640377    -0.01400
C1362       C  0.42372618  0.48780220  0.97115792    -0.10500
C1363       C  0.46243404  0.53396919  0.49962835     0.06000
H1364       H  0.43376407  0.52019840  0.54109035     0.07900
H1365       H  0.40492759  0.49094665  0.53892970     0.11300
H1366       H  0.42151377  0.47874954  0.95159713     0.11600
H1367       H  0.44969226  0.50904770  0.95261344     0.07900
C1368       C  0.47300402  0.53825649  0.52700900    -0.11200
C1369       C  0.49043330  0.55433705  0.52870381    -0.10500
C1370       C  0.49742107  0.56710144  0.50375605    -0.01400
C1371       C  0.48630504  0.56274308  0.97589734    -0.11600
C1372       C  0.46903009  0.54646987  0.97387037    -0.10000
H1373       H  0.46795776  0.52901925  0.54676741     0.07900
H1374       H  0.49834807  0.55715233  0.55004511     0.11600
H1375       H  0.49137766  0.57113142  0.95510246     0.11300
H1376       H  0.46130659  0.54330381  0.95233199     0.07900
C1377       C  0.84395813  0.43824953  0.75224655    -0.11200
C1378       C  0.82761925  0.42210615  0.74321651     0.05900
C1379       C  0.81214732  0.42295151  0.73567733    -0.10000
C1380       C  0.81300628  0.43960488  0.73753123    -0.11600
C1381       C  0.82935216  0.45564070  0.74687360    -0.01400
C1382       C  0.84483231  0.45481075  0.75392075    -0.10500
C1383       C  0.82684732  0.40451454  0.74232742     0.06000
H1384       H  0.79943160  0.41077427  0.72829231     0.07900
H1385       H  0.80088734  0.43991676  0.73190661     0.11300
H1386       H  0.85758868  0.46693951  0.76137436     0.11600
H1387       H  0.85601579  0.43803209  0.75876070     0.07900
C1388       C  0.84210029  0.40406231  0.73155411    -0.11200
C1389       C  0.84192235  0.38781529  0.73232093    -0.10500
C1390       C  0.82644049  0.37161886  0.74360891    -0.01400
C1391       C  0.81103517  0.37190492  0.75389756    -0.11600
C1392       C  0.81125348  0.38822976  0.75332968    -0.10000
H1393       H  0.85419060  0.41628462  0.72243259     0.07900
H1394       H  0.85391871  0.38792787  0.72395327     0.11600
H1395       H  0.79892791  0.35958032  0.76270820     0.11300
H1396       H  0.79938192  0.38819159  0.76216397     0.07900
C1397       C  0.44270149  0.34891729  0.63622016    -0.11200
C1398       C  0.44959887  0.34701775  0.60730615     0.05900
C1399       C  0.45756924  0.33636594  0.60655312    -0.10000
C1400       C  0.45906237  0.32833730  0.63383717    -0.11600
C1401       C  0.45298560  0.33099563  0.66280661    -0.01400
C1402       C  0.44453685  0.34114138  0.66371439    -0.10500
C1403       C  0.44941594  0.35676491  0.57841639     0.06000
H1404       H  0.46346981  0.33482528  0.58517700     0.07900
H1405       H  0.46581206  0.32073884  0.63244895     0.11300
H1406       H  0.43971163  0.34339669  0.68576147     0.11600
H1407       H  0.43608434  0.35662287  0.63779316     0.07900
C1408       C  0.45109896  0.37387544  0.58040688    -0.11200
C1409       C  0.45223438  0.38352961  0.55325879    -0.10500
C1410       C  0.45166916  0.37648011  0.52299799    -0.01400
C1411       C  0.45037612  0.35944869  0.52132988    -0.11600
C1412       C  0.44879521  0.34962776  0.54840934    -0.10000
H1413       H  0.45221029  0.38021612  0.60293899     0.07900
H1414       H  0.45391956  0.39684194  0.55586560     0.11600
H1415       H  0.45112047  0.35362692  0.49936461     0.11300
H1416       H  0.44734727  0.33644320  0.54559727     0.07900
C1417       C  0.46743377  0.34565911  0.87905904    -0.11200
C1418       C  0.45202632  0.34715311  0.88247241     0.05900
C1419       C  0.43790188  0.33883244  0.86002408    -0.10000
C1420       C  0.43980440  0.33019732  0.83354399    -0.11600
C1421       C  0.45573367  0.32957895  0.82944572    -0.01400
C1422       C  0.46924399  0.33693897  0.85295936    -0.10500
C1423       C  0.45161385  0.35837215  0.90855740     0.06000
H1424       H  0.42587523  0.33978219  0.86220041     0.07900
H1425       H  0.42920030  0.32467934  0.81571780     0.11300
H1426       H  0.48164850  0.33665852  0.85056784     0.11600
H1427       H  0.47836768  0.35169575  0.89631871     0.07900
C1428       C  0.46713511  0.37587636  0.91412219    -0.11200
C1429       C  0.46810523  0.38590436  0.94060584    -0.10500
C1430       C  0.45374635  0.37848453  0.96305235    -0.01400
C1431       C  0.43737170  0.36169652  0.95543062    -0.11600
C1432       C  0.43641198  0.35162982  0.92876507    -0.10000
H1433       H  0.47871887  0.38174448  0.89802455     0.07900
H1434       H  0.48025097  0.39945855  0.94309370     0.11600
H1435       H  0.42562444  0.35595953  0.97112035     0.11300
H1436       H  0.42410381  0.33831205  0.92461901     0.07900
C1437       C  0.72082073  0.49273847  0.76491608    -0.11200
C1438       C  0.73735688  0.50983644  0.76843094     0.05900
C1439       C  0.73643019  0.52564816  0.77025419    -0.10000
C1440       C  0.71936386  0.52427962  0.76900891    -0.11600
C1441       C  0.70289632  0.50708426  0.76605251    -0.01400
C1442       C  0.70388399  0.49137957  0.76393303    -0.10500
C1443       C  0.75528524  0.51084239  0.77008651     0.06000
H1444       H  0.74883903  0.53902710  0.77313433     0.07900
H1445       H  0.71903408  0.53663418  0.77065580     0.11300
H1446       H  0.69150090  0.47794223  0.76125392     0.11600
H1447       H  0.72092720  0.48029282  0.76255317     0.07900
C1448       C  0.75619637  0.49684695  0.78514046    -0.11200
C1449       C  0.77232734  0.49660821  0.78437017    -0.10500
C1450       C  0.78814507  0.51050645  0.76901784    -0.01400
C1451       C  0.78766766  0.52502452  0.75522941    -0.11600
C1452       C  0.77136540  0.52515046  0.75563209    -0.10000
H1453       H  0.74432687  0.48588532  0.79730322     0.07900
H1454       H  0.77235138  0.48536199  0.79557693     0.11600
H1455       H  0.79966942  0.53590354  0.74319327     0.11300
H1456       H  0.77118705  0.53611030  0.74366356     0.07900
C1457       C  0.58741077  0.41999460  0.72025499    -0.11200
C1458       C  0.57852967  0.40942505  0.74708413     0.05900
C1459       C  0.58650341  0.41623450  0.77670217    -0.10000
C1460       C  0.60244698  0.43369320  0.77953052    -0.11600
C1461       C  0.61067217  0.44460885  0.75279513    -0.01400
C1462       C  0.60329063  0.43741098  0.72308709    -0.10500
C1463       C  0.56021373  0.39220259  0.74434129     0.06000
H1464       H  0.57990327  0.40847966  0.79783119     0.07900
H1465       H  0.60787788  0.43894230  0.80271560     0.11300
H1466       H  0.60942659  0.44549690  0.70205403     0.11600
H1467       H  0.58179382  0.41497515  0.69707121     0.07900
C1468       C  0.54702735  0.39141499  0.72385662    -0.11200
C1469       C  0.52928629  0.37588747  0.72269276    -0.10500
C1470       C  0.52428662  0.36077594  0.74198864    -0.01400
C1471       C  0.53753397  0.36124255  0.76187132    -0.11600
C1472       C  0.55535380  0.37687214  0.76312522    -0.10000
H1473       H  0.55021221  0.40308745  0.70946832     0.07900
H1474       H  0.51933667  0.37588548  0.70714052     0.11600
H1475       H  0.53399838  0.34972545  0.77695753     0.11300
H1476       H  0.56528045  0.37703404  0.77893581     0.07900
C1477       C  0.60616559  0.51065890  0.86937538    -0.11200
C1478       C  0.61574518  0.51482701  0.89789212     0.05900
C1479       C  0.63361697  0.51802607  0.89784048    -0.10000
C1480       C  0.64164362  0.51685184  0.86985648    -0.11600
C1481       C  0.63181602  0.51211908  0.84149610    -0.01400
C1482       C  0.61404927  0.50918775  0.84155173    -0.10500
C1483       C  0.60672084  0.51492729  0.92774294     0.06000
H1484       H  0.64129740  0.52129604  0.91951720     0.07900
H1485       H  0.65530329  0.51908486  0.87058396     0.11300
H1486       H  0.60609166  0.50544443  0.82012008     0.11600
H1487       H  0.59232031  0.50795915  0.86880012     0.07900
C1488       C  0.59797776  0.52474935  0.93040752    -0.11200
C1489       C  0.58888332  0.52423278  0.95823035    -0.10500
C1490       C  0.58818883  0.51374803  0.98428660    -0.01400
C1491       C  0.59647791  0.50339641  0.98067639    -0.11600
C1492       C  0.60594071  0.50432215  0.95324562    -0.10000
H1493       H  0.59808708  0.53276553  0.91079188     0.07900
H1494       H  0.58182070  0.53148606  0.95846476     0.11600
H1495       H  0.59561230  0.49451997  0.99942254     0.11300
H1496       H  0.61215667  0.49623817  0.95156700     0.07900
C1497       C  0.61875186  0.52554590  0.56946448    -0.11200
C1498       C  0.61028533  0.52012518  0.59904648     0.05900
C1499       C  0.59136602  0.51347434  0.60126414    -0.10000
C1500       C  0.58104283  0.51127998  0.57426360    -0.11600
C1501       C  0.58912271  0.51498160  0.54405230    -0.01400
C1502       C  0.60847397  0.52334523  0.54259533    -0.10500
C1503       C  0.62107954  0.52085331  0.62708679     0.06000
H1504       H  0.58437317  0.50937982  0.62373652     0.07900
H1505       H  0.56646511  0.50588010  0.57681126     0.11300
H1506       H  0.61597480  0.52833882  0.52075562     0.11600
H1507       H  0.63344919  0.53156911  0.56703628     0.07900
C1508       C  0.63420045  0.51585954  0.62441047    -0.11200
C1509       C  0.64321845  0.51493584  0.65099220    -0.10500
C1510       C  0.63945085  0.51909478  0.68091120    -0.01400
C1511       C  0.62706426  0.52498318  0.68346267    -0.11600
C1512       C  0.61791897  0.52576950  0.65688974    -0.10000
H1513       H  0.63688511  0.51181591  0.60194307     0.07900
H1514       H  0.65256060  0.51019742  0.64828840     0.11600
H1515       H  0.62376112  0.52813833  0.70623630     0.11300
H1516       H  0.60814188  0.52995240  0.65976493     0.07900
C1517       C  0.46718967  0.20992899  0.70822372    -0.11200
C1518       C  0.45688598  0.21324540  0.73005142     0.05900
C1519       C  0.44630873  0.19961637  0.75259674    -0.10000
C1520       C  0.44626486  0.18336408  0.75355859    -0.11600
C1521       C  0.45713742  0.18054576  0.73252940    -0.01400
C1522       C  0.46752609  0.19392638  0.70978457    -0.10500
C1523       C  0.45789242  0.23113089  0.73020536     0.06000
H1524       H  0.43846207  0.20167276  0.77023935     0.07900
H1525       H  0.43826282  0.17329774  0.77149802     0.11300
H1526       H  0.47590104  0.19198193  0.69308396     0.11600
H1527       H  0.47509710  0.21969459  0.68989746     0.07900
C1528       C  0.47410761  0.24733321  0.72057161    -0.11200
C1529       C  0.47558261  0.26422627  0.72218701    -0.10500
C1530       C  0.46102558  0.26554394  0.73393427    -0.01400
C1531       C  0.44465731  0.24945447  0.74304706    -0.11600
C1532       C  0.44305927  0.23241948  0.74103653    -0.10000
H1533       H  0.48603493  0.24718796  0.71274536     0.07900
H1534       H  0.48839838  0.27638079  0.71497314     0.11600
H1535       H  0.43315404  0.25005209  0.75197836     0.11300
H1536       H  0.43018554  0.22029826  0.74801901     0.07900
C1537       C  0.72686966  0.20383084  0.74620637    -0.11200
C1538       C  0.72881743  0.21962414  0.75990513     0.05900
C1539       C  0.71367031  0.21823854  0.77551438    -0.10000
C1540       C  0.69671511  0.20163910  0.77611445    -0.11600
C1541       C  0.69460536  0.18606123  0.76133928    -0.01400
C1542       C  0.70990479  0.18715945  0.74702066    -0.10500
C1543       C  0.74625035  0.23768176  0.75656721     0.06000
H1544       H  0.71486135  0.23009023  0.78682138     0.07900
H1545       H  0.68514838  0.20107739  0.78761624     0.11300
H1546       H  0.70857182  0.17531736  0.73539752     0.11600
H1547       H  0.73827346  0.20452597  0.73382802     0.07900
C1548       C  0.76340425  0.23943623  0.75983636    -0.11200
C1549       C  0.77975761  0.25653508  0.75632477    -0.10500
C1550       C  0.77922140  0.27213912  0.74937800    -0.01400
C1551       C  0.76208371  0.27034571  0.74589867    -0.11600
C1552       C  0.74578674  0.25331660  0.74944730    -0.10000
H1553       H  0.76416189  0.22763195  0.76551701     0.07900
H1554       H  0.79280704  0.25757570  0.75927447     0.11600
H1555       H  0.76125397  0.28214167  0.74048863     0.11300
H1556       H  0.73279228  0.25234320  0.74621492     0.07900
C1557       C  0.56213994  0.12432529  0.75146531    -0.11200
C1558       C  0.56271725  0.14073321  0.74673431     0.05900
C1559       C  0.57984401  0.15707426  0.74211644    -0.10000
C1560       C  0.59605944  0.15695233  0.74207111    -0.11600
C1561       C  0.59537893  0.14049580  0.74668793    -0.01400
C1562       C  0.57828639  0.12420226  0.75133732    -0.10500
C1563       C  0.54538306  0.14054118  0.74585313     0.06000
H1564       H  0.58067219  0.16987925  0.73806531     0.07900
H1565       H  0.60910706  0.16971073  0.73853156     0.11300
H1566       H  0.57738978  0.11134650  0.75522690     0.11600
H1567       H  0.54918573  0.11157105  0.75560021     0.07900
C1568       C  0.52990068  0.12611802  0.73067918    -0.11200
C1569       C  0.51339639  0.12551836  0.73006288    -0.10500
C1570       C  0.51200557  0.13939853  0.74439085    -0.01400
C1571       C  0.52746649  0.15396267  0.75938492    -0.11600
C1572       C  0.54405568  0.15452520  0.76014273    -0.10000
H1573       H  0.53058794  0.11533743  0.71893799     0.07900
H1574       H  0.50171805  0.11419202  0.71815202     0.11600
H1575       H  0.52668714  0.16479901  0.77068076     0.11300
H1576       H  0.55573249  0.16571488  0.77225817     0.07900
C1577       C  0.39706592  0.82655755  0.79562149    -0.11200
C1578       C  0.40156408  0.81818748  0.77205518     0.05900
C1579       C  0.38935171  0.80941990  0.74691861    -0.10000
C1580       C  0.37337048  0.80990484  0.74458477    -0.11600
C1581       C  0.36935993  0.81904717  0.76747725    -0.01400
C1582       C  0.38110471  0.82695047  0.79339509    -0.10500
C1583       C  0.41982680  0.82036272  0.77202350     0.06000
H1584       H  0.39262456  0.80300593  0.72833994     0.07900
H1585       H  0.36447636  0.80364394  0.72443646     0.11300
H1586       H  0.37825945  0.83395478  0.81151985     0.11600
H1587       H  0.40619737  0.83325273  0.81536495     0.07900
C1588       C  0.43563697  0.83781598  0.77684772    -0.11200
C1589       C  0.45309314  0.84055474  0.77395867    -0.10500
C1590       C  0.45509109  0.82588034  0.76634229    -0.01400
C1591       C  0.43930306  0.80824369  0.76276787    -0.11600
C1592       C  0.42176713  0.80552571  0.76538304    -0.10000
H1593       H  0.43450226  0.84950943  0.78166960     0.07900
H1594       H  0.46504676  0.85428000  0.77691577     0.11600
H1595       H  0.44051419  0.79669951  0.75699435     0.11300
H1596       H  0.40973651  0.79192637  0.76177291     0.07900
C1597       C  0.20513385  0.72879022  0.75134666    -0.11200
C1598       C  0.22115583  0.72986255  0.74030307     0.05900
C1599       C  0.21971738  0.71401161  0.72803628    -0.10000
C1600       C  0.20286875  0.69732311  0.72809817    -0.11600
C1601       C  0.18700174  0.69612277  0.74003559    -0.01400
C1602       C  0.18816838  0.71205142  0.75110025    -0.10500
C1603       C  0.23948005  0.74712098  0.74297096     0.06000
H1604       H  0.23170513  0.71445766  0.71870087     0.07900
H1605       H  0.20229641  0.68527682  0.71906748     0.11300
H1606       H  0.17610532  0.71144398  0.76047841     0.11600
H1607       H  0.20582368  0.74073301  0.76116625     0.07900
C1608       C  0.24177235  0.76423986  0.73697880    -0.11200
C1609       C  0.25908292  0.78039514  0.74014465    -0.10500
C1610       C  0.27437990  0.77969956  0.74936432    -0.01400
C1611       C  0.27210967  0.76261815  0.75519196    -0.11600
C1612       C  0.25486191  0.74652781  0.75212344    -0.10000
H1613       H  0.23022216  0.76512492  0.72958965     0.07900
H1614       H  0.26050711  0.79341265  0.73533720     0.11600
H1615       H  0.28365882  0.76168214  0.76240875     0.11300
H1616       H  0.25351415  0.73360331  0.75748328     0.07900
C1617       C  0.34128588  0.46388997  0.60455411    -0.11200
C1618       C  0.34931561  0.45333186  0.60515789     0.05900
C1619       C  0.34812694  0.44394265  0.63284870    -0.10000
C1620       C  0.33953228  0.44549375  0.65965480    -0.11600
C1621       C  0.33225708  0.45671692  0.65941251    -0.01400
C1622       C  0.33297250  0.46567739  0.63146924    -0.10500
C1623       C  0.35964541  0.45296018  0.57738102     0.06000
H1624       H  0.35408783  0.43561644  0.63387236     0.07900
H1625       H  0.33936745  0.43861658  0.68100385     0.11300
H1626       H  0.32762770  0.47454740  0.63071408     0.11600
H1627       H  0.34213935  0.47140824  0.58362551     0.07900
C1628       C  0.35236186  0.45072951  0.54716243    -0.11200
C1629       C  0.36275353  0.45221980  0.52070770    -0.10500
C1630       C  0.38122678  0.45698582  0.52353517    -0.01400
C1631       C  0.38772305  0.45742505  0.55418503    -0.11600
C1632       C  0.37718048  0.45564755  0.58069898    -0.10000
H1633       H  0.33855918  0.44787448  0.54398481     0.07900
H1634       H  0.35607243  0.44978355  0.49825005     0.11600
H1635       H  0.40147472  0.46020090  0.55759194     0.11300
H1636       H  0.38308308  0.45718612  0.60378310     0.07900
C1637       C  0.35705413  0.45138033  0.85201776    -0.11200
C1638       C  0.35333523  0.45623244  0.88147674     0.05900
C1639       C  0.33975926  0.46067132  0.88319210    -0.10000
C1640       C  0.33120222  0.46158106  0.85602063    -0.11600
C1641       C  0.33562728  0.45758721  0.82658467    -0.01400
C1642       C  0.34816180  0.45188547  0.82496121    -0.10500
C1643       C  0.36411756  0.45755187  0.90993640     0.06000
H1644       H  0.33596816  0.46384366  0.90546510     0.07900
H1645       H  0.32147254  0.46588052  0.85794558     0.11300
H1646       H  0.35192756  0.44885311  0.80248731     0.11600
H1647       H  0.36748775  0.44807752  0.84941536     0.07900
C1648       C  0.37134377  0.44637982  0.91345260    -0.11200
C1649       C  0.38152063  0.44779778  0.94005963    -0.10500
C1650       C  0.38405098  0.45982172  0.96493864    -0.01400
C1651       C  0.37762672  0.47167830  0.96035066    -0.11600
C1652       C  0.36784121  0.47054964  0.93347771    -0.10000
H1653       H  0.36904946  0.43633599  0.89578577     0.07900
H1654       H  0.38732626  0.43939693  0.94052442     0.11600
H1655       H  0.37993516  0.48169617  0.97813795     0.11300
H1656       H  0.36336307  0.48006267  0.93115698     0.07900
C1657       C  0.15934372  0.55050780  0.75264006    -0.11200
C1658       C  0.14407502  0.55055711  0.76468150     0.05900
C1659       C  0.12940466  0.53439431  0.77790571    -0.10000
C1660       C  0.12956364  0.51833835  0.77774760    -0.11600
C1661       C  0.14447427  0.51813681  0.76466675    -0.01400
C1662       C  0.15957875  0.53442669  0.75278811    -0.10500
C1663       C  0.14309480  0.56716870  0.76258369     0.06000
H1664       H  0.11766451  0.53409423  0.78809611     0.07900
H1665       H  0.11783830  0.50596769  0.78739117     0.11300
H1666       H  0.17120292  0.53455458  0.74249222     0.11600
H1667       H  0.17080389  0.56270688  0.74207701     0.07900
C1668       C  0.15885383  0.58467920  0.76737275    -0.11200
C1669       C  0.15788127  0.60028088  0.76508900    -0.10500
C1670       C  0.14114483  0.59867327  0.75794504    -0.01400
C1671       C  0.12537454  0.58120935  0.75314721    -0.11600
C1672       C  0.12633619  0.56561064  0.75542167    -0.10000
H1673       H  0.17191254  0.58631968  0.77324581     0.07900
H1674       H  0.17025539  0.61361928  0.76878483     0.11600
H1675       H  0.11231839  0.57960703  0.74739054     0.11300
H1676       H  0.11402063  0.55235371  0.75100077     0.07900
C1677       C  0.20098005  0.44636414  0.74377460    -0.11200
C1678       C  0.21846188  0.46276717  0.74397987     0.05900
C1679       C  0.21931855  0.47946372  0.74634095    -0.10000
C1680       C  0.20329816  0.47984089  0.74813612    -0.11600
C1681       C  0.18584943  0.46354840  0.74784582    -0.01400
C1682       C  0.18481666  0.44675184  0.74563330    -0.10500
C1683       C  0.23589148  0.46283226  0.74183574     0.06000
H1684       H  0.23245569  0.49235016  0.74728366     0.07900
H1685       H  0.20462822  0.49302739  0.74997733     0.11300
H1686       H  0.17156409  0.43396977  0.74531494     0.11600
H1687       H  0.19979253  0.43325724  0.74176525     0.07900
C1688       C  0.23800093  0.44978880  0.75780342    -0.11200
C1689       C  0.25496679  0.45094457  0.75741341    -0.10500
C1690       C  0.27015408  0.46518373  0.74113042    -0.01400
C1691       C  0.26788364  0.47788500  0.72457232    -0.11600
C1692       C  0.25099838  0.47666585  0.72476163    -0.10000
H1693       H  0.22673019  0.43903990  0.77138031     0.07900
H1694       H  0.25632927  0.44097513  0.77045487     0.11600
H1695       H  0.27925195  0.48891434  0.71155836     0.11300
H1696       H  0.24982192  0.48670588  0.71157531     0.07900
C1697       C  0.50372575  0.72933820  0.76966206    -0.11200
C1698       C  0.51743137  0.74379974  0.75139200     0.05900
C1699       C  0.53092425  0.74154355  0.73704180    -0.10000
C1700       C  0.53014476  0.72487996  0.73988347    -0.11600
C1701       C  0.51586018  0.71022143  0.75707635    -0.01400
C1702       C  0.50289249  0.71280743  0.77230130    -0.10500
C1703       C  0.51689146  0.76068746  0.74685760     0.06000
H1704       H  0.54166556  0.75238094  0.72280948     0.07900
H1705       H  0.54034754  0.72327127  0.72788388     0.11300
H1706       H  0.49185462  0.70189462  0.78603558     0.11600
H1707       H  0.49342614  0.73072246  0.78184375     0.07900
C1708       C  0.49980417  0.75907895  0.74355637    -0.11200
C1709       C  0.49866801  0.77458345  0.74200385    -0.10500
C1710       C  0.51458275  0.79225469  0.74336075    -0.01400
C1711       C  0.53182012  0.79404680  0.74531845    -0.11600
C1712       C  0.53296865  0.77838375  0.74701053    -0.10000
H1713       H  0.48716768  0.74573140  0.74242080     0.07900
H1714       H  0.48517360  0.77267780  0.74013648     0.11600
H1715       H  0.54432617  0.80750387  0.74634870     0.11300
H1716       H  0.54636025  0.78012842  0.74952920     0.07900
C1717       C  0.52047080  0.64429694  0.89903850    -0.11200
C1718       C  0.52659564  0.63207463  0.89893518     0.05900
C1719       C  0.53246284  0.62859566  0.87031316    -0.10000
C1720       C  0.53138409  0.63645011  0.84233863    -0.11600
C1721       C  0.52430124  0.64783336  0.84238011    -0.01400
C1722       C  0.51919364  0.65195516  0.87106394    -0.10500
C1723       C  0.52533630  0.62180857  0.92790967     0.06000
H1724       H  0.53702035  0.61908560  0.86922206     0.07900
H1725       H  0.53520960  0.63286696  0.82048648     0.11300
H1726       H  0.51369489  0.66069586  0.87177349     0.11600
H1727       H  0.51622829  0.64763314  0.92069383     0.07900
C1728       C  0.51042739  0.61581528  0.94862127    -0.11200
C1729       C  0.50817214  0.60481973  0.97427309    -0.10500
C1730       C  0.52029171  0.59874509  0.97958890    -0.01400
C1731       C  0.53595641  0.60583229  0.95998828    -0.11600
C1732       C  0.53832875  0.61707493  0.93437920    -0.10000
H1733       H  0.50004233  0.61903247  0.94446618     0.07900
H1734       H  0.49629823  0.60024573  0.98937670     0.11600
H1735       H  0.54645919  0.60282982  0.96416013     0.11300
H1736       H  0.55035164  0.62201263  0.91950729     0.07900
C1737       C  0.50653686  0.63349673  0.61927894    -0.11200
C1738       C  0.52042671  0.62972849  0.61507333     0.05900
C1739       C  0.53405755  0.63541087  0.63821216    -0.10000
C1740       C  0.53312803  0.64371008  0.66590776    -0.11600
C1741       C  0.51859914  0.64649876  0.67074770    -0.01400
C1742       C  0.50561349  0.64175141  0.64682049    -0.10500
C1743       C  0.51965178  0.61856704  0.58787184     0.06000
H1744       H  0.54486739  0.63259668  0.63559455     0.07900
H1745       H  0.54326434  0.64716877  0.68407245     0.11300
H1746       H  0.49430242  0.64380129  0.64984798     0.11600
H1747       H  0.49605578  0.62957877  0.60157333     0.07900
C1748       C  0.53546616  0.62318762  0.57046733    -0.11200
C1749       C  0.53432575  0.61238056  0.54488827    -0.10500
C1750       C  0.51747320  0.59629868  0.53664830    -0.01400
C1751       C  0.50159866  0.59227468  0.55378113    -0.11600
C1752       C  0.50275340  0.60304357  0.57917299    -0.10000
H1753       H  0.54862486  0.63530486  0.57631413     0.07900
H1754       H  0.54668641  0.61648908  0.53147082     0.11600
H1755       H  0.48799350  0.58116957  0.54733508     0.11300
H1756       H  0.49029111  0.59919247  0.59205224     0.07900
C1757       C  0.40277561  0.54413983  0.73871524    -0.11200
C1758       C  0.40378824  0.55852099  0.75612073     0.05900
C1759       C  0.38763977  0.55581185  0.77012507    -0.10000
C1760       C  0.37091974  0.53899653  0.76711563    -0.11600
C1761       C  0.37009595  0.52459497  0.75018520    -0.01400
C1762       C  0.38615086  0.52736675  0.73589367    -0.10500
C1763       C  0.42167021  0.57621666  0.75941408     0.06000
H1764       H  0.38799345  0.56656540  0.78391719     0.07900
H1765       H  0.35872642  0.53716044  0.77844008     0.11300
H1766       H  0.38588504  0.51652599  0.72250878     0.11600
H1767       H  0.41482834  0.54587927  0.72700890     0.07900
C1768       C  0.43807662  0.57645699  0.76274763    -0.11200
C1769       C  0.45502889  0.59302913  0.76398469    -0.10500
C1770       C  0.45597788  0.60975103  0.76203051    -0.01400
C1771       C  0.43961469  0.60960738  0.75960053    -0.11600
C1772       C  0.42260496  0.59298692  0.75831876    -0.10000
H1773       H  0.43783170  0.56380734  0.76436022     0.07900
H1774       H  0.46743238  0.59273384  0.76606948     0.11600
H1775       H  0.43999034  0.62233486  0.75809528     0.11300
H1776       H  0.41024031  0.59327832  0.75548953     0.07900
C1777       C  0.08383933  0.44114267  0.86709458    -0.11200
C1778       C  0.09303149  0.45206782  0.89349399     0.05900
C1779       C  0.11240015  0.46298715  0.89285334    -0.10000
C1780       C  0.12225635  0.46345487  0.86621972    -0.11600
C1781       C  0.11303553  0.45305486  0.83945104    -0.01400
C1782       C  0.09373059  0.44162152  0.84039312    -0.10500
C1783       C  0.08257757  0.45254963  0.92126574     0.06000
H1784       H  0.11996613  0.47177708  0.91250719     0.07900
H1785       H  0.13709478  0.47260299  0.86611219     0.11300
H1786       H  0.08620893  0.43357014  0.82002701     0.11600
H1787       H  0.06896776  0.43239228  0.86692705     0.07900
C1788       C  0.06635253  0.45261042  0.91752598    -0.11200
C1789       C  0.05719419  0.45409573  0.94362847    -0.10500
C1790       C  0.06362347  0.45507892  0.97453303    -0.01400
C1791       C  0.08016579  0.45533451  0.97781037    -0.11600
C1792       C  0.08928237  0.45387715  0.95177464    -0.10000
H1793       H  0.06103756  0.45212406  0.89428002     0.07900
H1794       H  0.04512828  0.45476366  0.93965669     0.11600
H1795       H  0.08676360  0.45737449  0.00028117     0.11300
H1796       H  0.10178917  0.45398403  0.95560821     0.07900
C1797       C  0.07041750  0.44118690  0.57160793    -0.11200
C1798       C  0.08059955  0.45683059  0.59040675     0.05900
C1799       C  0.08060167  0.47265322  0.58280373    -0.10000
C1800       C  0.07158358  0.47322031  0.55596339    -0.11600
C1801       C  0.06295780  0.45820005  0.53499003    -0.01400
C1802       C  0.06163321  0.44182745  0.54446621    -0.10500
C1803       C  0.09179014  0.45700604  0.61715313     0.06000
H1804       H  0.08765239  0.48467246  0.59770040     0.07900
H1805       H  0.07155339  0.48554175  0.55209722     0.11300
H1806       H  0.05445058  0.42969348  0.52985120     0.11600
H1807       H  0.06990442  0.42868073  0.57712583     0.07900
C1808       C  0.08464943  0.44244928  0.63876257    -0.11200
C1809       C  0.09520234  0.44321860  0.66451024    -0.10500
C1810       C  0.11313557  0.45847823  0.66891336    -0.01400
C1811       C  0.12045083  0.47267161  0.64663507    -0.11600
C1812       C  0.10990451  0.47196814  0.62115689    -0.10000
H1813       H  0.07071905  0.43074814  0.63626592     0.07900
H1814       H  0.08914280  0.43216495  0.68145892     0.11600
H1815       H  0.13420549  0.48463779  0.64937152     0.11300
H1816       H  0.11590312  0.48322139  0.60458902     0.07900
C1817       C  0.09422119  0.60645803  0.54679918    -0.11200
C1818       C  0.08542362  0.60655275  0.57451467     0.05900
C1819       C  0.06611530  0.59636633  0.57577375    -0.10000
C1820       C  0.05578196  0.58639765  0.54963189    -0.11600
C1821       C  0.06454725  0.58671163  0.52124931    -0.01400
C1822       C  0.08397053  0.59639702  0.52089955    -0.10500
C1823       C  0.09646596  0.61631024  0.60257017     0.06000
H1824       H  0.05900221  0.59564260  0.59732103     0.07900
H1825       H  0.04101066  0.57802832  0.55236660     0.11300
H1826       H  0.09125789  0.59634554  0.50009614     0.11600
H1827       H  0.10910304  0.61411720  0.54515790     0.07900
C1828       C  0.11173574  0.61524986  0.61031220    -0.11200
C1829       C  0.12182293  0.62368554  0.63732674    -0.10500
C1830       C  0.11676916  0.63322115  0.65740277    -0.01400
C1831       C  0.10179733  0.63473347  0.64939666    -0.11600
C1832       C  0.09170963  0.62633685  0.62211770    -0.10000
H1833       H  0.11555237  0.60737967  0.59599770     0.07900
H1834       H  0.13316764  0.62210106  0.64312610     0.11600
H1835       H  0.09758277  0.64193455  0.66464329     0.11300
H1836       H  0.08009819  0.62750603  0.61646438     0.07900
C1837       C  0.10605217  0.63207647  0.88242403    -0.11200
C1838       C  0.08682662  0.62029588  0.88039104     0.05900
C1839       C  0.07830388  0.61739198  0.85103332    -0.10000
C1840       C  0.08892272  0.62528694  0.82396660    -0.11600
C1841       C  0.10823382  0.63603025  0.82582473    -0.01400
C1842       C  0.11665665  0.63982341  0.85538814    -0.10500
C1843       C  0.07619593  0.60974264  0.90838755     0.06000
H1844       H  0.06349271  0.60850835  0.84890524     0.07900
H1845       H  0.08208517  0.62214331  0.80142778     0.11300
H1846       H  0.13151346  0.64802227  0.85747482     0.11600
H1847       H  0.11300357  0.63442430  0.90471040     0.07900
C1848       C  0.06357825  0.59074488  0.90640766    -0.11200
C1849       C  0.05617006  0.58028305  0.93367882    -0.10500
C1850       C  0.06175009  0.58845392  0.96362704    -0.01400
C1851       C  0.07251017  0.60782639  0.96501990    -0.11600
C1852       C  0.07993478  0.61825383  0.93783947    -0.10000
H1853       H  0.06020394  0.58381848  0.88389141     0.07900
H1854       H  0.04694675  0.56558728  0.93146399     0.11600
H1855       H  0.07561062  0.61512703  0.98706640     0.11300
H1856       H  0.08899024  0.63298963  0.93988765     0.07900
C1857       C  0.05382568  0.53239427  0.51510321    -0.11200
C1858       C  0.06343741  0.53025561  0.49059584     0.05900
C1859       C  0.07263234  0.54433744  0.96983991    -0.10000
C1860       C  0.07057498  0.55942780  0.97001168    -0.11600
C1861       C  0.05847934  0.56019271  0.49095161    -0.01400
C1862       C  0.05167282  0.54726665  0.51560597    -0.10500
C1863       C  0.06226020  0.51260968  0.48772663     0.06000
H1864       H  0.08053485  0.54303376  0.95130364     0.07900
H1865       H  0.07783188  0.56981508  0.95226688     0.11300
H1866       H  0.04375860  0.54819203  0.53456266     0.11600
H1867       H  0.04736044  0.52210361  0.53335786     0.07900
C1868       C  0.07763953  0.51120069  0.99323795    -0.11200
C1869       C  0.07509838  0.49374680  0.99567146    -0.10500
C1870       C  0.05731385  0.47762589  0.49535438    -0.01400
C1871       C  0.04247991  0.47954351  0.48700138    -0.11600
C1872       C  0.04487056  0.49671916  0.48412159    -0.10000
H1873       H  0.09132085  0.52331060  0.99558136     0.07900
H1874       H  0.08700956  0.49277357  0.99942841     0.11600
H1875       H  0.02875418  0.46788021  0.48300052     0.11300
H1876       H  0.03295034  0.49763160  0.47986988     0.07900
C1877       C  0.86187196  0.49957875  0.89285660    -0.11200
C1878       C  0.87521942  0.51677709  0.90518623     0.05900
C1879       C  0.87946485  0.53263707  0.88837246    -0.10000
C1880       C  0.87065372  0.53124380  0.85984947    -0.11600
C1881       C  0.85725996  0.51399359  0.84788825    -0.01400
C1882       C  0.85293790  0.49822404  0.86478140    -0.10500
C1883       C  0.88512024  0.51781343  0.93460282     0.06000
H1884       H  0.88956975  0.54612279  0.89723539     0.07900
H1885       H  0.87428048  0.54360729  0.84719955     0.11300
H1886       H  0.84290789  0.48470782  0.85586763     0.11600
H1887       H  0.85859231  0.48704548  0.90450009     0.07900
C1888       C  0.87602221  0.50489932  0.95872441    -0.11200
C1889       C  0.88581853  0.50412757  0.98414144    -0.10500
C1890       C  0.90511529  0.51601737  0.98606471    -0.01400
C1891       C  0.91374045  0.53033681  0.96373910    -0.11600
C1892       C  0.90397367  0.53096154  0.93808735    -0.10000
H1893       H  0.86133043  0.49504624  0.95762533     0.07900
H1894       H  0.87843278  0.49355218  0.00164119     0.11600
H1895       H  0.92813360  0.54099391  0.96536849     0.11300
H1896       H  0.91142110  0.54138243  0.92039139     0.07900
C1897       C  0.90145081  0.53630549  0.57391175    -0.11200
C1898       C  0.89040156  0.52213054  0.59497274     0.05900
C1899       C  0.88785971  0.50486691  0.59021646    -0.10000
C1900       C  0.89600367  0.50163177  0.56470680    -0.11600
C1901       C  0.90723756  0.51570246  0.54310359    -0.01400
C1902       C  0.90952084  0.53305204  0.54804378    -0.10500
C1903       C  0.88043169  0.52456057  0.62102056     0.06000
H1904       H  0.87912755  0.49366656  0.60600893     0.07900
H1905       H  0.89257921  0.48774107  0.56149737     0.11300
H1906       H  0.91741430  0.54405643  0.53146618     0.11600
H1907       H  0.90333932  0.54967593  0.57691158     0.07900
C1908       C  0.88986903  0.53549362  0.64717893    -0.11200
C1909       C  0.88012614  0.53462497  0.67440116    -0.10500
C1910       C  0.86082966  0.52292420  0.67560595    -0.01400
C1911       C  0.85143148  0.51314658  0.64845230    -0.11600
C1912       C  0.86113890  0.51386470  0.62154526    -0.10000
H1913       H  0.90477783  0.54375111  0.64725499     0.07900
H1914       H  0.88773325  0.54223590  0.69501829     0.11600
H1915       H  0.83659054  0.50400618  0.64860562     0.11300
H1916       H  0.85362476  0.50534615  0.60157724     0.07900
C1917       C  0.96412988  0.53474754  0.97733548    -0.11200
C1918       C  0.97458729  0.54488590  0.49974763     0.05900
C1919       C  0.96686353  0.54754449  0.52678490    -0.10000
C1920       C  0.94770398  0.53759553  0.53115395    -0.11600
C1921       C  0.93577952  0.52507336  0.50807845    -0.01400
C1922       C  0.94511351  0.52488751  0.98116007    -0.10500
C1923       C  0.99469060  0.55298562  0.49697004     0.06000
H1924       H  0.97568064  0.55654412  0.54532113     0.07900
H1925       H  0.94254867  0.53921577  0.55329028     0.11300
H1926       H  0.93669849  0.51580971  0.96236425     0.11600
H1927       H  0.96984690  0.53310902  0.95575542     0.07900
C1928       C  0.00228592  0.54300722  0.98906215    -0.11200
C1929       C  0.02108151  0.55001833  0.98695598    -0.10500
C1930       C  0.03306612  0.56734685  0.49357968    -0.01400
C1931       C  0.02633615  0.57884275  0.49999883    -0.11600
C1932       C  0.00739793  0.57166074  0.50253721    -0.10000
H1933       H  0.99272140  0.52869707  0.98338440     0.07900
H1934       H  0.02515855  0.54088088  0.97842591     0.11600
H1935       H  0.03584186  0.59336301  0.50396243     0.11300
H1936       H  0.00267215  0.58070359  0.50845975     0.07900
C1937       C  0.89675076  0.35678277  0.92831379    -0.11200
C1938       C  0.88640299  0.36130593  0.90955062     0.05900
C1939       C  0.88586431  0.37681658  0.91696787    -0.10000
C1940       C  0.89516181  0.38752819  0.94305147    -0.11600
C1941       C  0.90565919  0.38325841  0.96251203    -0.01400
C1942       C  0.90602857  0.36746680  0.95473842    -0.10500
C1943       C  0.87521259  0.34966048  0.88304975     0.06000
H1944       H  0.87775386  0.38039108  0.90288524     0.07900
H1945       H  0.89306810  0.39851018  0.94849602     0.11300
H1946       H  0.91329979  0.36324428  0.96962481     0.11600
H1947       H  0.89713034  0.34469078  0.92315871     0.07900
C1948       C  0.85623082  0.34255179  0.88298791    -0.11200
C1949       C  0.84593878  0.33485955  0.85577312    -0.10500
C1950       C  0.85446527  0.33420650  0.82803073    -0.01400
C1951       C  0.87322964  0.34014486  0.82866025    -0.11600
C1952       C  0.88355429  0.34780642  0.85609583    -0.10000
H1953       H  0.84956498  0.34382709  0.90363636     0.07900
H1954       H  0.83148736  0.33028167  0.85603489     0.11600
H1955       H  0.88011833  0.33977997  0.80756109     0.11300
H1956       H  0.89821964  0.35332462  0.85568964     0.07900
C1957       C  0.89831394  0.35985209  0.56674878    -0.11200
C1958       C  0.87954366  0.35394335  0.56870862     0.05900
C1959       C  0.87206614  0.35846237  0.54356513    -0.10000
C1960       C  0.88336286  0.37055884  0.52012056    -0.11600
C1961       C  0.90253225  0.37811479  0.52001789    -0.01400
C1962       C  0.90942258  0.37115516  0.54222150    -0.10500
C1963       C  0.86825003  0.34453331  0.59759643     0.06000
H1964       H  0.85750907  0.35318590  0.54210027     0.07900
H1965       H  0.87716384  0.37458986  0.50247068     0.11300
H1966       H  0.92352011  0.37470371  0.54168654     0.11600
H1967       H  0.90488968  0.35647648  0.58462797     0.07900
C1968       C  0.87381111  0.33639279  0.62004714    -0.11200
C1969       C  0.86449562  0.32999587  0.64880765    -0.10500
C1970       C  0.84902792  0.33097202  0.65538004    -0.01400
C1971       C  0.84281205  0.33803892  0.63254048    -0.11600
C1972       C  0.85238990  0.34496820  0.60442158    -0.10000
H1973       H  0.88548391  0.33510548  0.61595769     0.07900
H1974       H  0.86954845  0.32454169  0.66606011     0.11600
H1975       H  0.83103868  0.33917903  0.63709092     0.11300
H1976       H  0.84762684  0.35148887  0.58899755     0.07900
C1977       C  0.96322599  0.41427092  0.53048360    -0.11200
C1978       C  0.97384601  0.41410331  0.50533877     0.05900
C1979       C  0.96452741  0.40735460  0.97504018    -0.10000
C1980       C  0.94567848  0.40037249  0.97147154    -0.11600
C1981       C  0.93539259  0.39990408  0.49818279    -0.01400
C1982       C  0.94461872  0.40794482  0.52660953    -0.10500
C1983       C  0.99430747  0.42284201  0.50838038     0.06000
H1984       H  0.97207604  0.40733563  0.95466408     0.07900
H1985       H  0.93981562  0.39537724  0.94851132     0.11300
H1986       H  0.93716541  0.40889240  0.54634821     0.11600
H1987       H  0.96916600  0.41935619  0.55340649     0.07900
C1988       C  0.00442747  0.43707948  0.53011827    -0.11200
C1989       C  0.02361991  0.44700569  0.53002764    -0.10500
C1990       C  0.03353522  0.44401376  0.50680669    -0.01400
C1991       C  0.02317956  0.42861604  0.98651060    -0.11600
C1992       C  0.00382735  0.41844953  0.98695793    -0.10000
H1993       H  0.99777034  0.44151503  0.54612104     0.07900
H1994       H  0.03080888  0.45842474  0.54617737     0.11600
H1995       H  0.03002041  0.42461060  0.97005950     0.11300
H1996       H  0.99666690  0.40705836  0.97083532     0.07900
C1997       C  0.91966238  0.47139580  0.53488297    -0.11200
C1998       C  0.91172421  0.45945397  0.50928785     0.05900
C1999       C  0.90434107  0.46532729  0.98353757    -0.10000
C2000       C  0.90472541  0.48173578  0.98542253    -0.11600
C2001       C  0.91188911  0.49256842  0.51213027    -0.01400
C2002       C  0.92006605  0.48784029  0.53597704    -0.10500
C2003       C  0.91270538  0.44283704  0.50660543     0.06000
H2004       H  0.89831386  0.45665023  0.96307424     0.07900
H2005       H  0.89947762  0.48522596  0.96548790     0.11300
H2006       H  0.92705377  0.49713989  0.55538742     0.11600
H2007       H  0.92618144  0.46832623  0.55345500     0.07900
C2008       C  0.92058716  0.44067153  0.97798357    -0.11200
C2009       C  0.92137794  0.42491671  0.97532815    -0.10500
C2010       C  0.91383747  0.41056067  0.50012853    -0.01400
C2011       C  0.90532619  0.41322133  0.52644802    -0.11600
C2012       C  0.90477318  0.42910333  0.52954292    -0.10000
H2013       H  0.92668275  0.45096112  0.95969000     0.07900
H2014       H  0.92810778  0.42345985  0.95498387     0.11600
H2015       H  0.89928137  0.40330871  0.54520450     0.11300
H2016       H  0.89798246  0.43059910  0.54976201     0.07900
C2017       C  0.62551800  0.09277815  0.87959479    -0.11200
C2018       C  0.61575114  0.09791317  0.89936840     0.05900
C2019       C  0.61424990  0.11269553  0.89011362    -0.10000
C2020       C  0.62186646  0.12181024  0.86203367    -0.11600
C2021       C  0.63082350  0.11618994  0.84172661    -0.01400
C2022       C  0.63282122  0.10172721  0.85081911    -0.10500
C2023       C  0.60584118  0.08731349  0.92819724     0.06000
H2024       H  0.60640794  0.11684516  0.90372054     0.07900
H2025       H  0.61994333  0.13281115  0.85558123     0.11300
H2026       H  0.63973254  0.09717772  0.83554590     0.11600
H2027       H  0.62731589  0.08171671  0.88600349     0.07900
C2028       C  0.59859981  0.06839254  0.93035858    -0.11200
C2029       C  0.58703121  0.05810062  0.95531860    -0.10500
C2030       C  0.58148247  0.06621638  0.97804372    -0.01400
C2031       C  0.58994618  0.08542800  0.97686455    -0.11600
C2032       C  0.60210355  0.09578145  0.95281504    -0.10000
H2033       H  0.60129076  0.06127539  0.91228072     0.07900
H2034       H  0.58243117  0.04378295  0.95610825     0.11600
H2035       H  0.58685051  0.09246430  0.99452896     0.11300
H2036       H  0.60820240  0.11045824  0.95330159     0.07900
C2037       C  0.61887219  0.08634162  0.63711036    -0.11200
C2038       C  0.61520281  0.09485974  0.61277290     0.05900
C2039       C  0.62161750  0.11355086  0.61511714    -0.10000
C2040       C  0.63064748  0.12336997  0.64213361    -0.11600
C2041       C  0.63314747  0.11458406  0.66754606    -0.01400
C2042       C  0.62767718  0.09612034  0.66448404    -0.10500
C2043       C  0.60298410  0.08400967  0.58659965     0.06000
H2044       H  0.61897290  0.12036610  0.59647380     0.07900
H2045       H  0.63465414  0.13755715  0.64384834     0.11300
H2046       H  0.62937984  0.08901826  0.68380777     0.11600
H2047       H  0.61394061  0.07189470  0.63571311     0.07900
C2048       C  0.60720420  0.07385281  0.56655368    -0.11200
C2049       C  0.59569316  0.06425721  0.54118616    -0.10500
C2050       C  0.57934104  0.06407672  0.53579629    -0.01400
C2051       C  0.57542378  0.07450096  0.55635800    -0.11600
C2052       C  0.58701504  0.08418767  0.58135913    -0.10000
H2053       H  0.61962000  0.07373517  0.57006259     0.07900
H2054       H  0.59960171  0.05701834  0.52539722     0.11600
H2055       H  0.56390281  0.07605321  0.55281142     0.11300
H2056       H  0.58361134  0.09208499  0.59652114     0.07900
C2057       C  0.44268962  0.06115016  0.57568352    -0.11200
C2058       C  0.44184682  0.07689673  0.57322720     0.05900
C2059       C  0.44199692  0.08366330  0.54328783    -0.10000
C2060       C  0.44316626  0.07506382  0.51639715    -0.11600
C2061       C  0.44361923  0.05892451  0.51835271    -0.01400
C2062       C  0.44381769  0.05247163  0.54873304    -0.10500
C2063       C  0.44235835  0.08714788  0.60170036     0.06000
H2064       H  0.44155798  0.09589699  0.54061554     0.07900
H2065       H  0.44435785  0.08173479  0.49434159     0.11300
H2066       H  0.44500514  0.04068392  0.55159463     0.11600
H2067       H  0.44313852  0.05589805  0.59851159     0.07900
C2068       C  0.45383097  0.10634866  0.60233857    -0.11200
C2069       C  0.45551190  0.11611680  0.62959909    -0.10500
C2070       C  0.44578644  0.10694693  0.65693619    -0.01400
C2071       C  0.43383921  0.08779098  0.65617067    -0.11600
C2072       C  0.43215369  0.07796317  0.62876501    -0.10000
H2073       H  0.46209693  0.11381440  0.58208324     0.07900
H2074       H  0.46496416  0.13084779  0.62956410     0.11600
H2075       H  0.42628242  0.08037069  0.67700363     0.11300
H2076       H  0.42308777  0.06318366  0.62884386     0.07900
C2077       C  0.45732200  0.07570302  0.90910844    -0.11200
C2078       C  0.44157172  0.07637505  0.90416573     0.05900
C2079       C  0.42641189  0.06655063  0.92420632    -0.10000
C2080       C  0.42765243  0.05750187  0.95036864    -0.11600
C2081       C  0.44420370  0.05835687  0.95744136    -0.01400
C2082       C  0.45849064  0.06650072  0.93492547    -0.10500
C2083       C  0.44164861  0.08807057  0.87883776     0.06000
H2084       H  0.41394112  0.06653449  0.92041147     0.07900
H2085       H  0.41595932  0.05052065  0.96612708     0.11300
H2086       H  0.47068747  0.06591337  0.93674111     0.11600
H2087       H  0.46886280  0.08248574  0.89298302     0.07900
C2088       C  0.45655898  0.10624969  0.87651635    -0.11200
C2089       C  0.45835910  0.11689717  0.85062942    -0.10500
C2090       C  0.44538737  0.10952435  0.82628239    -0.01400
C2091       C  0.42977111  0.09171055  0.82951580    -0.11600
C2092       C  0.42784108  0.08106815  0.85582490    -0.10000
H2093       H  0.46719533  0.11201084  0.89429713     0.07900
H2094       H  0.47050915  0.13058739  0.84886828     0.11600
H2095       H  0.41958534  0.08570780  0.81103945     0.11300
H2096       H  0.41618151  0.06708412  0.85729376     0.07900
C2097       C  0.48312169  0.03842491  0.00375356    -0.11200
C2098       C  0.49986158  0.05547102  0.50224811     0.05900
C2099       C  0.49880224  0.07095956  0.49712690    -0.10000
C2100       C  0.48161669  0.06912859  0.49400400    -0.11600
C2101       C  0.46509687  0.05165275  0.49383009    -0.01400
C2102       C  0.46604405  0.03647014  0.00039745    -0.10500
C2103       C  0.51775659  0.05673941  0.50409022     0.06000
H2104       H  0.51124018  0.08444839  0.49573252     0.18700
H2105       H  0.48121379  0.08133956  0.49058836     0.11300
H2106       H  0.45411413  0.02287371  0.00402637     0.11600
H2107       H  0.48358032  0.02632892  0.00830926     0.07900
C2108       C  0.52079712  0.04734977  0.52767591    -0.11200
C2109       C  0.53680966  0.04691153  0.52772377    -0.10500
C2110       C  0.55049819  0.05600738  0.50435521    -0.01400
C2111       C  0.54687748  0.06553556  0.97928112    -0.11600
C2112       C  0.53075680  0.06591219  0.97907370    -0.10000
H2113       H  0.51065453  0.04017914  0.54603029     0.07900
H2114       H  0.53865321  0.03951157  0.54632754     0.11600
H2115       H  0.55618634  0.07182889  0.95968097     0.11300
H2116       H  0.52838881  0.07255065  0.95978322     0.07900
C2117       C  0.34484735  0.88084087  0.95234992    -0.11200
C2118       C  0.35149868  0.88550910  0.92148926     0.05900
C2119       C  0.36963632  0.90023627  0.91663047    -0.10000
C2120       C  0.38114729  0.90944944  0.94198807    -0.11600
C2121       C  0.37514519  0.90395913  0.97317580    -0.01400
C2122       C  0.35636503  0.89014927  0.97783930    -0.10500
C2123       C  0.34032832  0.87430608  0.89434102     0.06000
H2124       H  0.37526667  0.90418980  0.89313444     0.07900
H2125       H  0.39517415  0.92046913  0.93722503     0.11300
H2126       H  0.35030169  0.88632410  0.00096701     0.11600
H2127       H  0.33073314  0.86991121  0.95678216     0.07900
C2128       C  0.33045098  0.85505810  0.89588307    -0.11200
C2129       C  0.32367175  0.84456162  0.86847965    -0.10500
C2130       C  0.32658059  0.85314859  0.83918929    -0.01400
C2131       C  0.33476620  0.87222084  0.83809461    -0.11600
C2132       C  0.34156626  0.88269884  0.86542165    -0.10000
H2133       H  0.32927077  0.84818077  0.91779591     0.07900
H2134       H  0.31732979  0.82985520  0.86996821     0.11600
H2135       H  0.33708022  0.87919150  0.81584655     0.11300
H2136       H  0.34871778  0.89748253  0.86364743     0.07900
C2137       C  0.36446438  0.88663636  0.65081083    -0.11200
C2138       C  0.35553926  0.87888804  0.62222818     0.05900
C2139       C  0.33914637  0.86154306  0.62229374    -0.10000
C2140       C  0.33231371  0.85169375  0.65018368    -0.11600
C2141       C  0.34177256  0.85900076  0.67849720    -0.01400
C2142       C  0.35764055  0.87674602  0.67875031    -0.10500
C2143       C  0.36396104  0.88813449  0.59212585     0.06000
H2144       H  0.33187407  0.85541731  0.60059126     0.07900
H2145       H  0.31994724  0.83810967  0.64941118     0.11300
H2146       H  0.36514452  0.88271021  0.70034023     0.11600
H2147       H  0.37716588  0.89995656  0.65133653     0.07900
C2148       C  0.37128077  0.90692523  0.58814813    -0.11200
C2149       C  0.37929899  0.91546566  0.55954856    -0.10500
C2150       C  0.37990436  0.90529388  0.53395158    -0.01400
C2151       C  0.37335944  0.88661912  0.53902304    -0.11600
C2152       C  0.36528882  0.87813146  0.56742221    -0.10000
H2153       H  0.37077292  0.91501507  0.60718262     0.07900
H2154       H  0.38529796  0.93006603  0.55816434     0.11600
H2155       H  0.37428127  0.87848307  0.52051946     0.11300
H2156       H  0.36030789  0.86373945  0.57023678     0.07900
C2157       C  0.40688562  0.99974258  0.50769626    -0.11200
C2158       C  0.41064101  0.99038365  0.48485687     0.05900
C2159       C  0.42195235  0.00041847  0.95786623    -0.10000
C2160       C  0.43185257  0.01944972  0.95863425    -0.11600
C2161       C  0.43087060  0.02904761  0.48560838    -0.01400
C2162       C  0.41664872  0.01894952  0.50772789    -0.10500
C2163       C  0.40473331  0.97095959  0.48922582     0.06000
H2164       H  0.42462529  0.99364250  0.93906736     0.07900
H2165       H  0.44210574  0.02680873  0.94052507     0.11300
H2166       H  0.41370055  0.02560911  0.52622516     0.11600
H2167       H  0.39741765  0.99231800  0.52678034     0.07900
C2168       C  0.41738639  0.96604717  0.98257696    -0.11200
C2169       C  0.41274595  0.94813923  0.98728244    -0.10500
C2170       C  0.39491599  0.93425119  0.49906000    -0.01400
C2171       C  0.38179553  0.93932047  0.50236952    -0.11600
C2172       C  0.38673076  0.95750592  0.49817450    -0.10000
H2173       H  0.43142545  0.97625041  0.97593034     0.07900
H2174       H  0.42333543  0.94531453  0.98240134     0.11600
H2175       H  0.36765407  0.92909194  0.50834345     0.11300
H2176       H  0.37642789  0.96097735  0.50130214     0.07900
C2177       C  0.53525017  0.89261699  0.86039565    -0.11200
C2178       C  0.52467079  0.88273372  0.88667447     0.05900
C2179       C  0.51545937  0.86354168  0.88634328    -0.10000
C2180       C  0.51570671  0.85431050  0.85950571    -0.11600
C2181       C  0.52491954  0.86405067  0.83216779    -0.01400
C2182       C  0.53527689  0.88333627  0.83322070    -0.10500
C2183       C  0.52116160  0.89197705  0.91271623     0.06000
H2184       H  0.50731540  0.85564813  0.90641146     0.07900
H2185       H  0.50759553  0.83946358  0.85949949     0.11300
H2186       H  0.54245207  0.89120398  0.81249601     0.11600
H2187       H  0.54243233  0.90743780  0.86012446     0.07900
C2188       C  0.53546691  0.90565746  0.93104803    -0.11200
C2189       C  0.53153316  0.91348010  0.95645700    -0.10500
C2190       C  0.51328641  0.90855886  0.96318316    -0.01400
C2191       C  0.49908431  0.89462965  0.94452093    -0.11600
C2192       C  0.50299006  0.88656223  0.91977212    -0.10000
H2193       H  0.54959684  0.90985496  0.92633091     0.07900
H2194       H  0.54277555  0.92341557  0.97106083     0.11600
H2195       H  0.48473552  0.88921382  0.94961331     0.11300
H2196       H  0.49169639  0.87586525  0.90617405     0.07900
C2197       C  0.50147564  0.87724928  0.54944292    -0.11200
C2198       C  0.51437841  0.88687697  0.57338511     0.05900
C2199       C  0.52701030  0.90578772  0.56920162    -0.10000
C2200       C  0.52606484  0.91495146  0.54283665    -0.11600
C2201       C  0.51193975  0.90564241  0.52037935    -0.01400
C2202       C  0.50034533  0.88643222  0.52341828    -0.10500
C2203       C  0.51412335  0.87731804  0.60292509     0.06000
H2204       H  0.53736273  0.91372850  0.58676002     0.07900
H2205       H  0.53632703  0.92940011  0.54061159     0.11300
H2206       H  0.48979534  0.87856175  0.50609517     0.11600
H2207       H  0.49200876  0.86256228  0.55090832     0.07900
C2208       C  0.49733991  0.86278812  0.61502782    -0.11200
C2209       C  0.49679785  0.85402211  0.64292930    -0.10500
C2210       C  0.51295678  0.85966371  0.65994523    -0.01400
C2211       C  0.52976384  0.87419035  0.64816912    -0.11600
C2212       C  0.53036680  0.88283086  0.61986571    -0.10000
H2213       H  0.48445162  0.85839521  0.60338295     0.07900
H2214       H  0.48357267  0.84304984  0.65160345     0.11600
H2215       H  0.54243355  0.87886274  0.66082625     0.11300
H2216       H  0.54359942  0.89377493  0.61124457     0.07900
C2217       C  0.53867139  0.96794159  0.97199802    -0.11200
C2218       C  0.53685014  0.97527503  0.49885271     0.05900
C2219       C  0.52731592  0.96402625  0.52458943    -0.10000
C2220       C  0.51900748  0.94504559  0.52256972    -0.11600
C2221       C  0.52039243  0.93656084  0.49509481    -0.01400
C2222       C  0.53062188  0.94892953  0.97000537    -0.10500
C2223       C  0.54496062  0.99540942  0.50067205     0.06000
H2224       H  0.52573257  0.96985485  0.54602465     0.07900
H2225       H  0.51110913  0.93683547  0.54255451     0.11300
H2226       H  0.53141978  0.94341343  0.94767341     0.11600
H2227       H  0.54599064  0.97633215  0.95178939     0.07900
C2228       C  0.55424675  0.00611461  0.02814445    -0.11200
C2229       C  0.56167530  0.02499510  0.02981555    -0.10500
C2230       C  0.56047923  0.03396296  0.50423826    -0.01400
C2231       C  0.54991833  0.02358832  0.47807804    -0.11600
C2232       C  0.54256902  0.00472463  0.47608952    -0.10000
H2233       H  0.55588249  0.99931382  0.04802197     0.07900
H2234       H  0.56809139  0.03171680  0.05165631     0.11600
H2235       H  0.54752011  0.03024900  0.45886990     0.11300
H2236       H  0.53468309  0.99733731  0.45550711     0.07900
C2237       C  0.43499524  0.91867594  0.52188276    -0.11200
C2238       C  0.43745557  0.90931892  0.49732724     0.05900
C2239       C  0.42403537  0.90083763  0.97424449    -0.10000
C2240       C  0.40807771  0.90142991  0.97543887    -0.11600
C2241       C  0.40561330  0.91157114  0.49961633    -0.01400
C2242       C  0.41936311  0.91978734  0.52301437    -0.10500
C2243       C  0.45456069  0.90906757  0.49531176     0.06000
H2244       H  0.42551494  0.89299942  0.95585267     0.07900
H2245       H  0.39758123  0.89340756  0.95826611     0.11300
H2246       H  0.41814623  0.92750648  0.54192536     0.11600
H2247       H  0.44543282  0.92556437  0.53980193     0.07900
C2248       C  0.46518163  0.91464616  0.46776194    -0.11200
C2249       C  0.48217237  0.91603786  0.46682141    -0.10500
C2250       C  0.48867543  0.91098605  0.49287014    -0.01400
C2251       C  0.47767727  0.90546339  0.02022341    -0.11600
C2252       C  0.46089578  0.90446311  0.02109717    -0.10000
H2253       H  0.46072204  0.91874626  0.44739721     0.07900
H2254       H  0.49050354  0.92143380  0.44578358     0.11600
H2255       H  0.48197075  0.90202399  0.04151460     0.11300
H2256       H  0.45266584  0.89978643  0.04235212     0.07900
loop_ 
_geom_bond_atom_site_label_1 
_geom_bond_atom_site_label_2 
_geom_bond_distance 
_geom_bond_site_symmetry_2 
_ccdc_geom_bond_type 
C1         C1062   1.557       .  S
C1         C2201   1.555       .  S
C1         C2221   1.555       .  S
C1         C2250   1.556       .  S
C2         C1022   1.548       .  S
C2         C1042   1.551   1_554  S
C2         C1113   1.557   1_554  S
C2         C2121   1.552   1_554  S
C3          C933   1.555   1_556  S
C3          C973   1.563       .  S
C3         C1033   1.549       .  S
C3         C2081   1.553       .  S
C4          C922   1.553       .  S
C4          C982   1.557       .  S
C4         C1102   1.556       .  S
C4         C2030   1.554   1_554  S
C5          C833   1.555   1_556  S
C5          C853   1.555       .  S
C5          C882   1.561       .  S
C5         C1941   1.556       .  S
C6          C773   1.554       .  S
C6          C793   1.552       .  S
C6          C873   1.563       .  S
C6         C1890   1.555   1_554  S
C7          C693   1.546   1_556  S
C7          C733   1.553       .  S
C7          C802   1.551       .  S
C7         C1850   1.548       .  S
C8          C673   1.558       .  S
C8          C742   1.561   1_554  S
C8          C862   1.556       .  S
C8         C1790   1.558   1_554  S
In9          O11   2.225       .  S
In9          O12   2.252       .  S
In9          O20   2.284       .  S
In9          O14   2.230       .  S
In9          O16   2.260       .  S
In9          O17   2.261       .  S
In9          O18   2.235       .  S
In9          O21   2.239       .  S
C10          O16   1.261       .  A
C10          O18   1.258       .  A
C10         C642   1.473       .  S
O11          C19   1.262       .  A
O12          C19   1.265       .  A
C13          O20   1.263       .  A
C13          O14   1.259       .  A
C13         C573   1.484       .  S
C15          O17   1.260       .  A
C15          O21   1.257       .  A
C15         C593   1.476       .  S
C19         C613   1.477       .  S
In22         O24   2.240       .  S
In22         O25   2.276       .  S
In22         O33   2.293       .  S
In22         O27   2.222       .  S
In22         O29   2.253       .  S
In22         O30   2.261       .  S
In22         O31   2.220       .  S
In22         O34   2.248       .  S
C23          O29   1.262       .  A
C23          O31   1.259       .  A
C23         C533   1.469       .  S
O24          C32   1.258       .  A
O25          C32   1.263       .  A
C26          O33   1.265       .  A
C26          O27   1.257       .  A
C26         C553   1.485       .  S
C28          O30   1.263       .  A
C28          O34   1.261       .  A
C28         C653   1.484       .  S
C32         C682   1.484       .  S
In35         O37   2.256       .  S
In35         O38   2.245       .  S
In35         O46   2.276       .  S
In35         O40   2.243       .  S
In35         O42   2.268       .  S
In35         O43   2.257       .  S
In35         O44   2.238       .  S
In35         O47   2.236       .  S
C36          O42   1.259       .  A
C36          O44   1.255       .  A
C36         C633   1.475       .  S
O37          C45   1.262       .  A
O38          C45   1.260       .  A
C39          O46   1.262       .  A
C39          O40   1.259       .  A
C39         C562   1.484       .  S
C41          O43   1.263       .  A
C41          O47   1.261       .  A
C41         C493   1.478       .  S
C45         C513   1.480       .  S
In48         O50   2.240       .  S
In48         O51   2.244       .  S
In48         O59   2.264       .  S
In48         O53   2.227       .  S
In48         O55   2.245       .  S
In48         O56   2.248       .  S
In48         O57   2.238       .  S
In48         O60   2.219       .  S
C49          O55   1.260       .  A
C49          O57   1.259       .  A
C49         C542   1.472       .  S
O50          C58   1.260       .  A
O51          C58   1.259       .  A
C52          O59   1.263       .  A
C52          O53   1.258       .  A
C52         C473   1.476       .  S
C54          O56   1.262       .  A
C54          O60   1.259       .  A
C54         C702   1.470       .  S
C58         C713   1.473       .  S
In61         O63   2.242       .  S
In61         O64   2.269       .  S
In61         O72   2.290       .  S
In61         O66   2.225       .  S
In61         O68   2.251       .  S
In61         O69   2.280       .  S
In61         O70   2.235       .  S
In61         O73   2.239       .  S
C62          O68   1.261       .  A
C62          O70   1.260       .  A
C62         C462   1.473       .  S
O63          C71   1.260       .  A
O64          C71   1.263       .  A
C65          O72   1.264       .  A
C65          O66   1.257       .  A
C65         C582   1.484       .  S
C67          O69   1.263       .  A
C67          O73   1.257       .  A
C67        C1082   1.483       .  S
C71        C1053   1.484       .  S
In74         O76   2.241       .  S
In74         O77   2.245       .  S
In74         O85   2.255       .  S
In74         O79   2.229       .  S
In74         O81   2.264       .  S
In74         O82   2.243       .  S
In74         O83   2.238       .  S
In74         O86   2.241       .  S
C75          O81   1.260       .  A
C75          O83   1.257       .  A
C75         C453   1.475       .  S
O76          C84   1.261       .  A
O77          C84   1.259       .  A
C78          O85   1.262       .  A
C78          O79   1.261       .  A
C78         C482   1.476       .  S
C80          O82   1.261       .  A
C80          O86   1.260       .  A
C80        C1002   1.474       .  S
C84        C1013   1.474       .  S
In87         O89   2.225       .  S
In87         O90   2.253       .  S
In87         O98   2.257       .  S
In87         O92   2.226       .  S
In87         O94   2.247       .  S
In87         O95   2.273       .  S
In87         O96   2.229       .  S
In87         O99   2.204       .  S
C88          O94   1.263       .  A
C88          O96   1.261       .  A
C88         C433   1.473       .  S
O89          C97   1.261       .  A
O90          C97   1.264       .  A
C91          O98   1.262       .  A
C91          O92   1.258       .  A
C91         C413   1.473       .  S
C93          O95   1.264       .  A
C93          O99   1.257       .  A
C93         C893   1.474       .  S
C97         C913   1.476       .  S
In100       O102   2.223       .  S
In100       O103   2.259       .  S
In100       O111   2.269       .  S
In100       O105   2.234       .  S
In100       O107   2.259       .  S
In100       O108   2.263       .  S
In100       O109   2.229       .  S
In100       O112   2.228       .  S
C101        O107   1.261       .  A
C101        O109   1.257       .  A
C101        C442   1.472       .  S
O102        C110   1.260       .  A
O103        C110   1.264       .  A
C104        O111   1.263       .  A
C104        O105   1.258       .  A
C104        C393   1.478       .  S
C106        O108   1.263       .  A
C106        O112   1.260       .  A
C106        C942   1.478       .  S
C110        C962   1.476       .  S
In113       O115   2.272       .  S
In113       O116   2.240       .  S
In113       O124   2.287       .  S
In113       O118   2.235       .  S
In113       O120   2.256       .  S
In113       O121   2.267       .  S
In113       O122   2.239       .  S
In113       O125   2.252       .  S
C114        O120   1.260       .  A
C114        O122   1.258       .  A
C114        C333   1.474       .  S
O115        C123   1.265       .  A
O116        C123   1.259       .  A
C117        O124   1.265       .  A
C117        O118   1.258       .  A
C117        C313   1.486       .  S
C119        O121   1.260       .  A
C119        O125   1.259       .  A
C119        C382   1.483       .  S
C123        C353   1.483       .  S
In126       O128   2.241       .  S
In126       O129   2.262       .  S
In126       O137   2.277       .  S
In126       O131   2.228       .  S
In126       O133   2.254       .  S
In126       O134   2.268       .  S
In126       O135   2.241       .  S
In126       O138   2.233       .  S
C127        O133   1.259       .  A
C127        O135   1.258       .  A
C127        C342   1.473       .  S
O128        C136   1.261       .  A
O129        C136   1.262       .  A
C130        O137   1.264       .  A
C130        O131   1.257       .  A
C130        C402   1.481       .  S
C132        O134   1.262       .  A
C132        O138   1.258       .  A
C132        C293   1.479       .  S
C136        C273   1.480       .  S
In139       O141   2.226       .  S
In139       O142   2.269       .  S
In139       O150   2.272       .  S
In139       O144   2.240       .  S
In139       O146   2.253       .  S
In139       O147   2.277       .  S
In139       O148   2.222       .  S
In139       O151   2.223       .  S
C140        O146   1.264       .  A
C140        O148   1.260       .  A
C140        C253   1.473       .  S
O141        C149   1.261       .  A
O142        C149   1.265       .  A
C143        O150   1.262       .  A
C143        O144   1.259       .  A
C143        C322   1.482       .  S
C145        O147   1.266       .  A
C145        O151   1.257       .  A
C145        C753   1.479       .  S
C149        C782   1.482       .  S
In152       O154   2.224       .  S
In152       O155   2.259       .  S
In152       O163   2.265       .  S
In152       O157   2.229       .  S
In152       O159   2.249       .  S
In152       O160   2.262       .  S
In152       O161   2.233       .  S
In152       O164   2.227       .  S
C153        O159   1.261       .  A
C153        O161   1.260       .  A
C153        C262   1.473       .  S
O154        C162   1.259       .  A
O155        C162   1.262       .  A
C156        O163   1.262       .  A
C156        O157   1.257       .  A
C156        C422   1.476       .  S
C158        O160   1.262       .  A
C158        O164   1.259       .  A
C158        C842   1.476       .  S
C162        C822   1.475       .  S
C165        C222   1.559       .  S
C165        C233   1.558       .  S
C165        C522   1.557       .  S
C165       C1630   1.557       .  S
C166        C193   1.556       .  S
C166        C242   1.557       .  S
C166        C622   1.554       .  S
C166       C1730   1.550   1_554  S
C167        C173   1.558       .  S
C167        C362   1.557       .  S
C167       C1330   1.561       .  S
C167       C1501   1.559       .  S
C168        C182   1.563       .  S
C168        C282   1.556   1_556  S
C168       C1341   1.553       .  S
C168       C1430   1.555       .  S
C169        C170   1.399       .  A
C169        C174   1.392       .  A
C169        H179   1.083       .  S
C170        C175   1.481       .  S
C170       C1299   1.403       .  A
C171        C172   1.406       .  A
C171       C1298   1.403       .  A
C171        H176   1.083       .  S
C172       C1301   1.416       .  A
C172        H177   1.079       .  S
C173        C174   1.415       .  A
C173       C1300   1.416       .  A
C174        H178   1.083       .  S
C175        C184   1.402       .  A
C175       C1308   1.398       .  A
C180        C181   1.392       .  A
C180       C1303   1.398       .  A
C180        H185   1.084       .  S
C181        C182   1.416   1_554  A
C181        H186   1.078       .  S
C182       C1311   1.418   1_556  A
C183        C184   1.405       .  A
C183       C1310   1.418       .  A
C183        H187   1.083       .  S
C184        H188   1.082       .  S
C189        C190   1.400       .  A
C189        C194   1.403       .  A
C189        H199   1.083       .  S
C190        C195   1.481       .  S
C190       C1319   1.400   1_554  A
C191        C192   1.397       .  A
C191       C1318   1.400       .  A
C191        H196   1.083       .  S
C192       C1321   1.414       .  A
C192        H197   1.083       .  S
C193        C194   1.418       .  A
C193       C1320   1.414   1_554  A
C194        H198   1.079       .  S
C195        C200   1.403       .  A
C195       C1332   1.397       .  A
C200        C201   1.407       .  A
C200        H205   1.083       .  S
C201        C202   1.415       .  A
C201        H206   1.083       .  S
C202       C1295   1.562       .  S
C202       C1331   1.418       .  A
C203        C204   1.394       .  A
C203       C1330   1.418       .  A
C203        H207   1.080       .  S
C204       C1323   1.396       .  A
C204        H208   1.084       .  S
C209        C214   1.403       .  A
C209       C1338   1.402   1_554  A
C209        H219   1.083       .  S
C210        C215   1.478       .  S
C210        C211   1.400       .  A
C210       C1337   1.401       .  A
C211        C212   1.394       .  A
C211        H216   1.083       .  S
C212        C213   1.414       .  A
C212        H217   1.083       .  S
C213       C1296   1.553       .  S
C213       C1342   1.415       .  A
C214       C1341   1.414   1_554  A
C214        H218   1.080       .  S
C215        C224   1.398       .  A
C215       C1348   1.402       .  A
C220        C221   1.404       .  A
C220       C1343   1.401       .  A
C220        H225   1.083       .  S
C221       C1350   1.416       .  A
C221        H226   1.083       .  S
C222        C223   1.416       .  A
C222       C1349   1.417       .  A
C223        C224   1.391       .  A
C223        H227   1.078       .  S
C224        H228   1.084       .  S
C229        C230   1.400       .  A
C229        C234   1.395       .  A
C229        H239   1.081       .  S
C230       C1363   1.481       .  S
C230       C1359   1.401       .  A
C231        C232   1.399       .  A
C231       C1358   1.401   1_554  A
C231        H236   1.086       .  S
C232       C1361   1.415   1_554  A
C232        H237   1.076       .  S
C233        C234   1.415       .  A
C233       C1360   1.416       .  A
C234        H238   1.085       .  S
C235       C1358   1.481       .  S
C235        C240   1.403   1_556  A
C235       C1372   1.402       .  A
C240        C241   1.397       .  A
C240        H245   1.078       .  S
C241        C242   1.413       .  A
C241        H246   1.084       .  S
C242       C1371   1.418   1_554  A
C243        C244   1.397       .  A
C243       C1370   1.417       .  A
C243        H247   1.078       .  S
C244       C1363   1.401       .  A
C244        H248   1.080       .  S
C249        C250   1.405       .  A
C249        C254   1.392       .  A
C249        H259   1.083       .  S
C250        C255   1.483       .  S
C250        C251   1.407       .  A
C251        C252   1.400       .  A
C251        H256   1.082       .  S
C252        C253   1.404       .  A
C252        H257   1.083       .  S
C253        C254   1.403       .  A
C254        H258   1.083       .  S
C255        C260   1.405       .  A
C255        C264   1.407       .  A
C260        C261   1.393       .  A
C260        H265   1.083       .  S
C261        C262   1.402       .  A
C261        H266   1.084       .  S
C262        C263   1.404       .  A
C263        C264   1.399       .  A
C263        H267   1.082       .  S
C264        H268   1.083       .  S
C269        C270   1.410       .  A
C269        C274   1.403       .  A
C269        H279   1.083       .  S
C270        C275   1.498       .  S
C270        C271   1.409       .  A
C271        C272   1.396       .  A
C271        H276   1.082       .  S
C272        C273   1.402       .  A
C272        H277   1.084       .  S
C273        C274   1.405       .  A
C274        H278   1.082       .  S
C275        C280   1.407       .  A
C275        C284   1.405       .  A
C280        C281   1.400       .  A
C280        H285   1.082       .  S
C281        C282   1.413       .  A
C281        H286   1.083       .  S
C282        C283   1.414       .  A
C283        C284   1.397       .  A
C283        H287   1.078   1_554  S
C284        H288   1.083       .  S
C289        C290   1.403       .  A
C289        C294   1.394       .  A
C289        H299   1.084       .  S
C290        C295   1.480       .  S
C290        C291   1.405       .  A
C291        C292   1.403       .  A
C291        H296   1.083       .  S
C292        C293   1.407       .  A
C292        H297   1.083       .  S
C293        C294   1.405       .  A
C294        H298   1.083       .  S
C295        C300   1.401       .  A
C295        C304   1.401       .  A
C300        C301   1.394       .  A
C300        H305   1.083       .  S
C301        C302   1.412       .  A
C301        H306   1.079       .  S
C302       C1296   1.554       .  S
C302        C303   1.417       .  A
C303        C304   1.401       .  A
C303        H307   1.083       .  S
C304        H308   1.083       .  S
C309        C310   1.406       .  A
C309        C314   1.396       .  A
C309        H319   1.083       .  S
C310        C315   1.495       .  S
C310        C311   1.410       .  A
C311        C312   1.408       .  A
C311        H316   1.082       .  S
C312        C313   1.406       .  A
C312        H317   1.084       .  S
C313        C314   1.405       .  A
C314        H318   1.083       .  S
C315        C320   1.408       .  A
C315        C324   1.409       .  A
C320        C321   1.397       .  A
C320        H325   1.082       .  S
C321        C322   1.403       .  A
C321        H326   1.084       .  S
C322        C323   1.406       .  A
C323        C324   1.405       .  A
C323        H327   1.082       .  S
C324        H328   1.083       .  S
C329        C330   1.405       .  A
C329        C334   1.394       .  A
C329        H339   1.083       .  S
C330        C335   1.482       .  S
C330        C331   1.406       .  A
C331        C332   1.399       .  A
C331        H336   1.083       .  S
C332        C333   1.404       .  A
C332        H337   1.083       .  S
C333        C334   1.403       .  A
C334        H338   1.083       .  S
C335        C340   1.405       .  A
C335        C344   1.406       .  A
C340        C341   1.393       .  A
C340        H345   1.083       .  S
C341        C342   1.402       .  A
C341        H346   1.083       .  S
C342        C343   1.405       .  A
C343        C344   1.400       .  A
C343        H347   1.083       .  S
C344        H348   1.083       .  S
C349        C350   1.404       .  A
C349        C354   1.399       .  A
C349        H359   1.083       .  S
C350        C355   1.486       .  S
C350        C351   1.407       .  A
C351        C352   1.402       .  A
C351        H356   1.082       .  S
C352        C353   1.405       .  A
C352        H357   1.083       .  S
C353        C354   1.407       .  A
C354        H358   1.083       .  S
C355        C360   1.404       .  A
C355        C364   1.400       .  A
C360        C361   1.403       .  A
C360        H365   1.083       .  S
C361        C362   1.414       .  A
C361        H366   1.079       .  S
C362        C363   1.416       .  A
C363        C364   1.396       .  A
C363        H367   1.083       .  S
C364        H368   1.083       .  S
C369        C370   1.402       .  A
C369        C374   1.397       .  A
C369        H379   1.083       .  S
C370        C375   1.494       .  S
C370        C371   1.407       .  A
C371        C372   1.405       .  A
C371        H376   1.082       .  S
C372        C373   1.413       .  A
C372        H377   1.083       .  S
C373       C1295   1.559       .  S
C373        C374   1.416       .  A
C374        H378   1.080       .  S
C375        C380   1.408       .  A
C375        C384   1.407       .  A
C380        C381   1.399       .  A
C380        H385   1.082       .  S
C381        C382   1.404       .  A
C381        H386   1.083       .  S
C382        C383   1.406       .  A
C383        C384   1.403       .  A
C383        H387   1.083       .  S
C384        H388   1.083       .  S
C389        C390   1.411       .  A
C389        C394   1.397       .  A
C389        H399   1.081       .  S
C390        C395   1.502       .  S
C390        C391   1.412       .  A
C391        C392   1.402       .  A
C391        H396   1.082       .  S
C392        C393   1.402       .  A
C392        H397   1.083       .  S
C393        C394   1.402       .  A
C394        H398   1.084       .  S
C395        C400   1.409       .  A
C395        C404   1.412       .  A
C400        C401   1.396       .  A
C400        H405   1.082       .  S
C401        C402   1.404       .  A
C401        H406   1.083       .  S
C402        C403   1.403       .  A
C403        C404   1.403       .  A
C403        H407   1.084       .  S
C404        H408   1.081       .  S
C409        C410   1.407       .  A
C409        C414   1.399       .  A
C409        H419   1.083       .  S
C410        C415   1.485       .  S
C410        C411   1.406       .  A
C411        C412   1.395       .  A
C411        H416   1.083       .  S
C412        C413   1.403       .  A
C412        H417   1.083       .  S
C413        C414   1.403       .  A
C414        H418   1.083       .  S
C415        C420   1.407       .  A
C415        C424   1.405       .  A
C420        C421   1.401       .  A
C420        H425   1.083       .  S
C421        C422   1.404       .  A
C421        H426   1.083       .  S
C422        C423   1.404       .  A
C423        C424   1.394       .  A
C423        H427   1.083       .  S
C424        H428   1.083       .  S
C429        C430   1.406       .  A
C429        C434   1.393       .  A
C429        H439   1.082       .  S
C430        C435   1.484       .  S
C430        C431   1.407       .  A
C431        C432   1.399       .  A
C431        H436   1.083       .  S
C432        C433   1.404       .  A
C432        H437   1.083       .  S
C433        C434   1.402       .  A
C434        H438   1.084       .  S
C435        C440   1.405       .  A
C435        C444   1.408       .  A
C440        C441   1.392       .  A
C440        H445   1.083       .  S
C441        C442   1.402       .  A
C441        H446   1.083       .  S
C442        C443   1.404       .  A
C443        C444   1.400       .  A
C443        H447   1.083       .  S
C444        H448   1.082       .  S
C449        C450   1.403       .  A
C449        C454   1.394       .  A
C449        H459   1.084       .  S
C450        C455   1.479       .  S
C450        C451   1.406       .  A
C451        C452   1.400       .  A
C451        H456   1.082       .  S
C452        C453   1.405       .  A
C452        H457   1.083       .  S
C453        C454   1.404       .  A
C454        H458   1.083       .  S
C455        C460   1.404       .  A
C455        C464   1.405       .  A
C460        C461   1.393       .  A
C460        H465   1.083       .  S
C461        C462   1.403       .  A
C461        H466   1.084       .  S
C462        C463   1.405       .  A
C463        C464   1.400       .  A
C463        H467   1.082       .  S
C464        H468   1.084       .  S
C469        C470   1.407       .  A
C469        C474   1.402       .  A
C469        H479   1.083       .  S
C470        C475   1.485       .  S
C470        C471   1.405       .  A
C471        C472   1.394       .  A
C471        H476   1.083       .  S
C472        C473   1.403       .  A
C472        H477   1.083       .  S
C473        C474   1.405       .  A
C474        H478   1.083       .  S
C475        C480   1.407       .  A
C475        C484   1.405       .  A
C480        C481   1.402       .  A
C480        H485   1.083       .  S
C481        C482   1.405       .  A
C481        H486   1.083       .  S
C482        C483   1.402       .  A
C483        C484   1.393       .  A
C483        H487   1.083       .  S
C484        H488   1.083       .  S
C489        C490   1.407       .  A
C489        C494   1.398       .  A
C489        H499   1.083       .  S
C490        C495   1.488       .  S
C490        C491   1.406       .  A
C491        C492   1.401       .  A
C491        H496   1.083       .  S
C492        C493   1.405       .  A
C492        H497   1.083       .  S
C493        C494   1.404       .  A
C494        H498   1.083       .  S
C495        C500   1.401       .  A
C495        C504   1.405       .  A
C500        C501   1.397       .  A
C500        H505   1.083       .  S
C501        C502   1.416       .  A
C501        H506   1.079   1_554  S
C502       C1293   1.557   1_554  S
C502        C503   1.413       .  A
C503        C504   1.400       .  A
C503        H507   1.083       .  S
C504        H508   1.083       .  S
C509        C510   1.407       .  A
C509        C514   1.399       .  A
C509        H519   1.082       .  S
C510        C515   1.491       .  S
C510        C511   1.408       .  A
C511        C512   1.399       .  A
C511        H516   1.082       .  S
C512        C513   1.404       .  A
C512        H517   1.083       .  S
C513        C514   1.405       .  A
C514        H518   1.083       .  S
C515        C520   1.404       .  A
C515        C524   1.404       .  A
C520        C521   1.399       .  A
C520        H525   1.083       .  S
C521        C522   1.415       .  A
C521        H526   1.077       .  S
C522        C523   1.413       .  A
C523        C524   1.396       .  A
C523        H527   1.083       .  S
C524        H528   1.082       .  S
C529        C530   1.407       .  A
C529        C534   1.399       .  A
C529        H539   1.083       .  S
C530        C535   1.480       .  S
C530        C531   1.404       .  A
C531        C532   1.391       .  A
C531        H536   1.084       .  S
C532        C533   1.402       .  A
C532        H537   1.083       .  S
C533        C534   1.403       .  A
C534        H538   1.083       .  S
C535        C540   1.404       .  A
C535        C544   1.406       .  A
C540        C541   1.397       .  A
C540        H545   1.083       .  S
C541        C542   1.404       .  A
C541        H546   1.083       .  S
C542        C543   1.403       .  A
C543        C544   1.394       .  A
C543        H547   1.083       .  S
C544        H548   1.083       .  S
C549        C550   1.411       .  A
C549        C554   1.409       .  A
C549        H559   1.083       .  S
C550        C555   1.496       .  S
C550        C551   1.405       .  A
C551        C552   1.393       .  A
C551        H556   1.083       .  S
C552        C553   1.404       .  A
C552        H557   1.084       .  S
C553        C554   1.407       .  A
C554        H558   1.082       .  S
C555        C560   1.409       .  A
C555        C564   1.408       .  A
C560        C561   1.407       .  A
C560        H565   1.082       .  S
C561        C562   1.407       .  A
C561        H566   1.083       .  S
C562        C563   1.403       .  A
C563        C564   1.396       .  A
C563        H567   1.083       .  S
C564        H568   1.083       .  S
C569        C570   1.406       .  A
C569        C574   1.394       .  A
C569        H579   1.083       .  S
C570        C575   1.495       .  S
C570        C571   1.410       .  A
C571        C572   1.409       .  A
C571        H576   1.082       .  S
C572        C573   1.407       .  A
C572        H577   1.083       .  S
C573        C574   1.403       .  A
C574        H578   1.083       .  S
C575        C580   1.406       .  A
C575        C584   1.410       .  A
C580        C581   1.394       .  A
C580        H585   1.083       .  S
C581        C582   1.404       .  A
C581        H586   1.083       .  S
C582        C583   1.407       .  A
C583        C584   1.408       .  A
C583        H587   1.083       .  S
C584        H588   1.083       .  S
C589        C590   1.407       .  A
C589        C594   1.395       .  A
C589        H599   1.083       .  S
C590        C595   1.490       .  S
C590        C591   1.408       .  A
C591        C592   1.400       .  A
C591        H596   1.082       .  S
C592        C593   1.404       .  A
C592        H597   1.083       .  S
C593        C594   1.403       .  A
C594        H598   1.083       .  S
C595        C600   1.404       .  A
C595        C604   1.406       .  A
C600        C601   1.392       .  A
C600        H605   1.082       .  S
C601        C602   1.412       .  A
C601        H606   1.084       .  S
C602       C1294   1.549       .  S
C602        C603   1.412       .  A
C603        C604   1.402       .  A
C603        H607   1.079       .  S
C604        H608   1.084       .  S
C609        C610   1.404       .  A
C609        C614   1.394       .  A
C609        H619   1.083       .  S
C610        C615   1.482       .  S
C610        C611   1.406       .  A
C611        C612   1.402       .  A
C611        H616   1.083       .  S
C612        C613   1.406       .  A
C612        H617   1.083       .  S
C613        C614   1.404       .  A
C614        H618   1.084       .  S
C615        C620   1.402       .  A
C615        C624   1.401       .  A
C620        C621   1.401       .  A
C620        H625   1.082       .  S
C621        C622   1.415       .  A
C621        H626   1.083       .  S
C622        C623   1.414       .  A
C623        C624   1.393       .  A
C623        H627   1.079       .  S
C624        H628   1.083       .  S
C629        C630   1.404       .  A
C629        C634   1.395       .  A
C629        H639   1.083       .  S
C630        C635   1.481       .  S
C630        C631   1.405       .  A
C631        C632   1.400       .  A
C631        H636   1.083       .  S
C632        C633   1.404       .  A
C632        H637   1.083       .  S
C633        C634   1.404       .  A
C634        H638   1.083       .  S
C635        C640   1.404       .  A
C635        C644   1.405       .  A
C640        C641   1.395       .  A
C640        H645   1.083       .  S
C641        C642   1.403       .  A
C641        H646   1.083       .  S
C642        C643   1.404       .  A
C643        C644   1.400       .  A
C643        H647   1.083       .  S
C644        H648   1.083       .  S
C649        C650   1.407       .  A
C649        C654   1.402       .  A
C649        H659   1.083       .  S
C650        C655   1.494       .  S
C650        C651   1.408       .  A
C651        C652   1.400       .  A
C651        H656   1.083       .  S
C652        C653   1.405       .  A
C652        H657   1.083       .  S
C653        C654   1.406       .  A
C654        H658   1.083       .  S
C655        C660   1.405       .  A
C655        C664   1.403       .  A
C660        C661   1.402       .  A
C660        H665   1.083       .  S
C661        C662   1.414       .  A
C661        H666   1.082       .  S
C662       C1136   1.557       .  S
C662        C663   1.417       .  A
C663        C664   1.398       .  A
C663        H667   1.079       .  S
C664        H668   1.082       .  S
C669        C670   1.402       .  A
C669        C674   1.401       .  A
C669        H679   1.083       .  S
C670        C675   1.488       .  S
C670        C671   1.404       .  A
C671        C672   1.399       .  A
C671        H676   1.083       .  S
C672        C673   1.414       .  A
C672        H677   1.078       .  S
C673        C674   1.415       .  A
C674        H678   1.083       .  S
C675        C680   1.407       .  A
C675        C684   1.404       .  A
C680        C681   1.405       .  A
C680        H685   1.083       .  S
C681        C682   1.406       .  A
C681        H686   1.083       .  S
C682        C683   1.406       .  A
C683        C684   1.397       .  A
C683        H687   1.083       .  S
C684        H688   1.083       .  S
C689        C690   1.401       .  A
C689        C694   1.389       .  A
C689        H699   1.083       .  S
C690        C695   1.480       .  S
C690        C691   1.404       .  A
C691        C692   1.398       .  A
C691        H696   1.083       .  S
C692        C693   1.412       .  A
C692        H697   1.079       .  S
C693        C694   1.412       .  A
C694        H698   1.084       .  S
C695        C700   1.404       .  A
C695        C704   1.406       .  A
C700        C701   1.391       .  A
C700        H705   1.083       .  S
C701        C702   1.403       .  A
C701        H706   1.084       .  S
C702        C703   1.403       .  A
C703        C704   1.398       .  A
C703        H707   1.083       .  S
C704        H708   1.083       .  S
C709        C710   1.406       .  A
C709        C714   1.394       .  A
C709        H719   1.083       .  S
C710        C715   1.481       .  S
C710        C711   1.405       .  A
C711        C712   1.399       .  A
C711        H716   1.083       .  S
C712        C713   1.406       .  A
C712        H717   1.083       .  S
C713        C714   1.402       .  A
C714        H718   1.083       .  S
C715        C720   1.404       .  A
C715        C724   1.401       .  A
C720        C721   1.398       .  A
C720        H725   1.083       .  S
C721        C722   1.411       .  A
C721        H726   1.082       .  S
C722       C1135   1.547       .  S
C722        C723   1.414       .  A
C723        C724   1.393       .  A
C723        H727   1.081       .  S
C724        H728   1.083       .  S
C729        C730   1.399   1_554  A
C729        C734   1.391       .  A
C729        H739   1.084       .  S
C730        C735   1.475       .  S
C730       C1859   1.401       .  A
C731        C732   1.405       .  A
C731       C1858   1.401       .  A
C731        H736   1.083       .  S
C732       C1861   1.418       .  A
C732        H737   1.080       .  S
C733        C734   1.412   1_556  A
C733       C1860   1.417       .  A
C734        H738   1.083       .  S
C735        C744   1.396       .  A
C735       C1868   1.402       .  A
C740        C741   1.406       .  A
C740       C1863   1.402       .  A
C740        H745   1.083       .  S
C741       C1870   1.417       .  A
C741        H746   1.083       .  S
C742        C743   1.416       .  A
C742       C1869   1.417       .  A
C743        C744   1.389       .  A
C743        H747   1.080       .  S
C744        H748   1.084       .  S
C749        C750   1.405       .  A
C749        C754   1.394       .  A
C749        H759   1.083       .  S
C750        C755   1.489       .  S
C750        C751   1.409       .  A
C751        C752   1.404       .  A
C751        H756   1.083       .  S
C752        C753   1.403       .  A
C752        H757   1.083       .  S
C753        C754   1.405       .  A
C754        H758   1.083       .  S
C755        C760   1.405       .  A
C755        C764   1.403       .  A
C760        C761   1.397       .  A
C760        H765   1.083       .  S
C761        C762   1.412       .  A
C761        H766   1.083       .  S
C762       C1134   1.554       .  S
C762        C763   1.416       .  A
C763        C764   1.398       .  A
C763        H767   1.079       .  S
C764        H768   1.083       .  S
C769        C770   1.401       .  A
C769        C774   1.404       .  A
C769        H779   1.083       .  S
C770        C775   1.481       .  S
C770        C771   1.400       .  A
C771        C772   1.395       .  A
C771        H776   1.084       .  S
C772        C773   1.414       .  A
C772        H777   1.079       .  S
C773        C774   1.417       .  A
C774        H778   1.083       .  S
C775        C780   1.405       .  A
C775        C784   1.402       .  A
C780        C781   1.406       .  A
C780        H785   1.083       .  S
C781        C782   1.408       .  A
C781        H786   1.083       .  S
C782        C783   1.405       .  A
C783        C784   1.394       .  A
C783        H787   1.083       .  S
C784        H788   1.084       .  S
C789        C794   1.390       .  A
C789       C1918   1.399       .  A
C789        H799   1.083       .  S
C790        C795   1.481   1_554  S
C790        C791   1.404       .  A
C790       C1917   1.399   1_554  A
C791        C792   1.404       .  A
C791        H796   1.083       .  S
C792        C793   1.415       .  A
C792        H797   1.080       .  S
C793       C1922   1.413   1_554  A
C794       C1921   1.414       .  A
C794        H798   1.083       .  S
C795        C804   1.403   1_656  A
C795       C1928   1.401   1_655  A
C800        C801   1.392       .  A
C800       C1923   1.401   1_455  A
C800        H805   1.084   1_455  S
C801       C1930   1.413       .  A
C801        H806   1.080       .  S
C802        C803   1.415   1_556  A
C802       C1929   1.413       .  A
C803        C804   1.403       .  A
C803        H807   1.083       .  S
C804        H808   1.083       .  S
C809        C810   1.400       .  A
C809        C814   1.402       .  A
C809        H819   1.083       .  S
C810        C815   1.476       .  S
C810        C811   1.399       .  A
C811        C812   1.391       .  A
C811        H816   1.084       .  S
C812        C813   1.413       .  A
C812        H817   1.078       .  S
C813       C1133   1.554       .  S
C813        C814   1.417       .  A
C814        H818   1.083       .  S
C815        C820   1.402       .  A
C815        C824   1.404       .  A
C820        C821   1.391       .  A
C820        H825   1.084       .  S
C821        C822   1.403       .  A
C821        H826   1.083       .  S
C822        C823   1.407       .  A
C823        C824   1.403       .  A
C823        H827   1.083       .  S
C824        H828   1.083       .  S
C829        C830   1.410       .  A
C829        C834   1.399       .  A
C829        H839   1.078       .  S
C830        C835   1.506       .  S
C830        C831   1.410       .  A
C831        C832   1.395       .  A
C831        H836   1.079       .  S
C832        C833   1.410       .  A
C832        H837   1.083       .  S
C833        C834   1.412       .  A
C834        H838   1.079       .  S
C835        C840   1.415       .  A
C835        C844   1.412       .  A
C840        C841   1.402       .  A
C840        H845   1.079       .  S
C841        C842   1.402       .  A
C841        H846   1.083       .  S
C842        C843   1.400       .  A
C843        C844   1.393       .  A
C843        H847   1.083       .  S
C844        H848   1.079       .  S
C849        C850   1.409       .  A
C849        C854   1.396       .  A
C849        H859   1.080       .  S
C850        C855   1.507       .  S
C850       C1979   1.410   1_554  A
C851        C852   1.401       .  A
C851       C1978   1.409       .  A
C851        H856   1.081       .  S
C852       C1981   1.413       .  A
C852        H857   1.079       .  S
C853        C854   1.411   1_556  A
C853       C1980   1.413       .  A
C854        H858   1.083       .  S
C855        C860   1.408   1_655  A
C855       C1992   1.413   1_654  A
C860        C861   1.394       .  A
C860        H865   1.079   1_455  S
C861        C862   1.412       .  A
C861        H866   1.084       .  S
C862       C1991   1.410   1_554  A
C863        C864   1.404       .  A
C863       C1990   1.410       .  A
C863        H867   1.080       .  S
C864       C1983   1.411   1_455  A
C864        H868   1.082   1_455  S
C869        C870   1.402       .  A
C869        C874   1.401       .  A
C869        H879   1.083       .  S
C870        C875   1.486       .  S
C870       C1999   1.401   1_554  A
C871        C872   1.400       .  A
C871       C1998   1.401       .  A
C871        H876   1.083       .  S
C872       C2001   1.417       .  A
C872        H877   1.079       .  S
C873        C874   1.416       .  A
C873       C2000   1.417   1_554  A
C874        H878   1.083       .  S
C875        C884   1.401       .  A
C875       C2008   1.403   1_554  A
C880        C881   1.400       .  A
C880       C2003   1.402       .  A
C880        H885   1.084       .  S
C881       C2010   1.414       .  A
C881        H886   1.083       .  S
C882        C883   1.418   1_556  A
C882       C2009   1.414       .  A
C883        C884   1.401       .  A
C883        H887   1.080       .  S
C884        H888   1.083       .  S
C889        C890   1.413       .  A
C889        C894   1.404       .  A
C889        H899   1.081       .  S
C890        C895   1.496       .  S
C890        C891   1.407       .  A
C891        C892   1.389       .  A
C891        H896   1.081       .  S
C892        C893   1.401       .  A
C892        H897   1.083       .  S
C893        C894   1.403       .  A
C894        H898   1.083       .  S
C895        C900   1.406       .  A
C895        C904   1.406       .  A
C900        C901   1.400       .  A
C900        H905   1.081       .  S
C901        C902   1.414       .  A
C901        H906   1.078       .  S
C902       C1132   1.554       .  S
C902        C903   1.412       .  A
C903        C904   1.392       .  A
C903        H907   1.083       .  S
C904        H908   1.082       .  S
C909        C910   1.403       .  A
C909        C914   1.401       .  A
C909        H919   1.083       .  S
C910        C915   1.475       .  S
C910        C911   1.402       .  A
C911        C912   1.394       .  A
C911        H916   1.084       .  S
C912        C913   1.405       .  A
C912        H917   1.083       .  S
C913        C914   1.406       .  A
C914        H918   1.084       .  S
C915        C920   1.399       .  A
C915        C924   1.400       .  A
C920        C921   1.399       .  A
C920        H925   1.083       .  S
C921        C922   1.416       .  A
C921        H926   1.083       .  S
C922        C923   1.414       .  A
C923        C924   1.393       .  A
C923        H927   1.079       .  S
C924        H928   1.084       .  S
C929        C930   1.403       .  A
C929        C934   1.400       .  A
C929        H939   1.083       .  S
C930        C935   1.487       .  S
C930        C931   1.402       .  A
C931        C932   1.395       .  A
C931        H936   1.083       .  S
C932        C933   1.416       .  A
C932        H937   1.079   1_554  S
C933        C934   1.414       .  A
C934        H938   1.082       .  S
C935        C940   1.405       .  A
C935        C944   1.407       .  A
C940        C941   1.394       .  A
C940        H945   1.083       .  S
C941        C942   1.403       .  A
C941        H946   1.083       .  S
C942        C943   1.406       .  A
C943        C944   1.403       .  A
C943        H947   1.083       .  S
C944        H948   1.083       .  S
C949        C950   1.402       .  A
C949        C954   1.394       .  A
C949        H959   1.083       .  S
C950        C955   1.478       .  S
C950        C951   1.399       .  A
C951        C952   1.399       .  A
C951        H956   1.083       .  S
C952        C953   1.417       .  A
C952        H957   1.083       .  S
C953       C1131   1.553       .  S
C953        C954   1.411       .  A
C954        H958   1.078       .  S
C955        C960   1.402       .  A
C955        C964   1.405       .  A
C960        C961   1.392       .  A
C960        H965   1.083       .  S
C961        C962   1.404       .  A
C961        H966   1.083       .  S
C962        C963   1.406       .  A
C963        C964   1.403       .  A
C963        H967   1.083       .  S
C964        H968   1.083       .  S
C969        C974   1.391       .  A
C969       C2098   1.398       .  A
C969        H979   1.083       .  S
C970        C975   1.485       .  S
C970        C971   1.405   1_554  A
C970       C2097   1.398       .  A
C971        C972   1.405       .  A
C971        H976   1.083       .  S
C972        C973   1.415       .  A
C972        H977   1.083       .  S
C973       C2102   1.418   1_556  A
C974       C2101   1.418       .  A
C974        H978   1.080       .  S
C975        C980   1.402       .  A
C975       C2112   1.402   1_554  A
C980        C981   1.396       .  A
C980        H985   1.083       .  S
C981        C982   1.413       .  A
C981        H986   1.083       .  S
C982       C2111   1.417   1_554  A
C983        C984   1.401       .  A
C983       C2110   1.417       .  A
C983        H987   1.079       .  S
C984       C2103   1.401       .  A
C984        H988   1.083       .  S
C989        C990   1.402       .  A
C989        C994   1.399       .  A
C989        H999   1.083       .  S
C990        C995   1.484       .  S
C990        C991   1.404       .  A
C991        C992   1.393       .  A
C991        H996   1.083       .  S
C992        C993   1.411       .  A
C992        H997   1.083       .  S
C993       C1130   1.552       .  S
C993        C994   1.417       .  A
C994        H998   1.079       .  S
C995       C1000   1.406       .  A
C995       C1004   1.406       .  A
C1000      C1001   1.398       .  A
C1000      H1005   1.083       .  S
C1001      C1002   1.404       .  A
C1001      H1006   1.083       .  S
C1002      C1003   1.403       .  A
C1003      C1004   1.396       .  A
C1003      H1007   1.083       .  S
C1004      H1008   1.083       .  S
C1009      C1010   1.404       .  A
C1009      C1014   1.399       .  A
C1009      H1019   1.083       .  S
C1010      C1015   1.479       .  S
C1010      C1011   1.404       .  A
C1011      C1012   1.394       .  A
C1011      H1016   1.083       .  S
C1012      C1013   1.402       .  A
C1012      H1017   1.084       .  S
C1013      C1014   1.406       .  A
C1014      H1018   1.083       .  S
C1015      C1020   1.402       .  A
C1015      C1024   1.401       .  A
C1020      C1021   1.399       .  A
C1020      H1025   1.083       .  S
C1021      C1022   1.415       .  A
C1021      H1026   1.078       .  S
C1022      C1023   1.411       .  A
C1023      C1024   1.390       .  A
C1023      H1027   1.084       .  S
C1024      H1028   1.083       .  S
C1029      C1030   1.404   1_554  A
C1029      C1034   1.402   1_565  A
C1029      H1039   1.083       .  S
C1030      C1035   1.480       .  S
C1030      C2159   1.400   1_565  A
C1031      C1032   1.390       .  A
C1031      C2158   1.401   1_545  A
C1031      H1036   1.083   1_545  S
C1032      C2161   1.413       .  A
C1032      H1037   1.083       .  S
C1033      C1034   1.413   1_556  A
C1033      C2160   1.413       .  A
C1034      H1038   1.079       .  S
C1035      C1044   1.401       .  A
C1035      C2168   1.401       .  A
C1040      C1041   1.390       .  A
C1040      C2163   1.402       .  A
C1040      H1045   1.084       .  S
C1041      C2170   1.413       .  A
C1041      H1046   1.079       .  S
C1042      C1043   1.416       .  A
C1042      C2169   1.413       .  A
C1043      C1044   1.401       .  A
C1043      H1047   1.083   1_556  S
C1044      H1048   1.083       .  S
C1049      C1050   1.405       .  A
C1049      C1054   1.406       .  A
C1049      H1059   1.083       .  S
C1050      C1055   1.484       .  S
C1050      C1051   1.403       .  A
C1051      C1052   1.397       .  A
C1051      H1056   1.083       .  S
C1052      C1053   1.405       .  A
C1052      H1057   1.083       .  S
C1053      C1054   1.408       .  A
C1054      H1058   1.082       .  S
C1055      C1060   1.402       .  A
C1055      C1064   1.401       .  A
C1060      C1061   1.405       .  A
C1060      H1065   1.083       .  S
C1061      C1062   1.416       .  A
C1061      H1066   1.083       .  S
C1062      C1063   1.414       .  A
C1063      C1064   1.397       .  A
C1063      H1067   1.080       .  S
C1064      H1068   1.083       .  S
C1069      C1070   1.406       .  A
C1069      C1074   1.397       .  A
C1069      H1079   1.082       .  S
C1070      C1075   1.499       .  S
C1070      C1071   1.408       .  A
C1071      C1072   1.402       .  A
C1071      H1076   1.082       .  S
C1072      C1073   1.413       .  A
C1072      H1077   1.080       .  S
C1073      C1129   1.553   1_554  S
C1073      C1074   1.412       .  A
C1074      H1078   1.082       .  S
C1075      C1080   1.408       .  A
C1075      C1084   1.411       .  A
C1080      C1081   1.397       .  A
C1080      H1085   1.082       .  S
C1081      C1082   1.404       .  A
C1081      H1086   1.083       .  S
C1082      C1083   1.404       .  A
C1083      C1084   1.404       .  A
C1083      H1087   1.083       .  S
C1084      H1088   1.082       .  S
C1089      C1094   1.402       .  A
C1089      C2218   1.405       .  A
C1089      H1099   1.083       .  S
C1090      C1095   1.488   1_556  S
C1090      C1091   1.401   1_556  A
C1090      C2217   1.404       .  A
C1091      C1092   1.396       .  A
C1091      H1096   1.083       .  S
C1092      C1093   1.416   1_554  A
C1092      H1097   1.083       .  S
C1093      C1129   1.555       .  S
C1093      C2222   1.414       .  A
C1094      C2221   1.415       .  A
C1094      H1098   1.080       .  S
C1095      C1104   1.403   1_564  A
C1095      C2228   1.403   1_565  A
C1100      C1101   1.399       .  A
C1100      C2223   1.403   1_545  A
C1100      H1105   1.083   1_545  S
C1101      C2230   1.415       .  A
C1101      H1106   1.079       .  S
C1102      C1103   1.414   1_554  A
C1102      C2229   1.416       .  A
C1103      C1104   1.399       .  A
C1103      H1107   1.083       .  S
C1104      H1108   1.083   1_545  S
C1109      C1110   1.400   1_554  A
C1109      C1114   1.396       .  A
C1109      H1119   1.083       .  S
C1110      C1115   1.478       .  S
C1110      C2239   1.400       .  A
C1111      C1112   1.401       .  A
C1111      C2238   1.401       .  A
C1111      H1116   1.083       .  S
C1112      C2241   1.416       .  A
C1112      H1117   1.078       .  S
C1113      C1114   1.415   1_556  A
C1113      C2240   1.416       .  A
C1114      H1118   1.083       .  S
C1115      C1120   1.400       .  A
C1115      C2252   1.400   1_556  A
C1120      C1121   1.397       .  A
C1120      H1125   1.083       .  S
C1121      C1122   1.414       .  A
C1121      H1126   1.083       .  S
C1122      C1129   1.554       .  S
C1122      C2251   1.416   1_556  A
C1123      C1124   1.398       .  A
C1123      C2250   1.416       .  A
C1123      H1127   1.081       .  S
C1124      C2243   1.401       .  A
C1124      H1128   1.083       .  S
C1129      C2190   1.556       .  S
C1130      C2150   1.548       .  S
C1130      C2170   1.552       .  S
C1130      C2241   1.559       .  S
C1131      C2061   1.554       .  S
C1131      C2101   1.563       .  S
C1131      C2161   1.550       .  S
C1132      C2050   1.554       .  S
C1132      C2110   1.557       .  S
C1132      C2230   1.557       .  S
C1133      C1961   1.555       .  S
C1133      C1981   1.554       .  S
C1133      C2010   1.562       .  S
C1134      C1901   1.555       .  S
C1134      C1921   1.552       .  S
C1134      C2001   1.562       .  S
C1135      C1821   1.546       .  S
C1135      C1861   1.555       .  S
C1135      C1930   1.550       .  S
C1136      C1801   1.558       .  S
C1136      C1870   1.562       .  S
C1136      C1990   1.555       .  S
In1137     O1139   2.224       .  S
In1137     O1140   2.253       .  S
In1137     O1148   2.281       .  S
In1137     O1142   2.233       .  S
In1137     O1144   2.259       .  S
In1137     O1145   2.255       .  S
In1137     O1146   2.232       .  S
In1137     O1149   2.241       .  S
C1138      O1144   1.262       .  A
C1138      O1146   1.258       .  A
C1138      C1770   1.475       .  S
O1139      C1147   1.261       .  A
O1140      C1147   1.264       .  A
C1141      O1148   1.263       .  A
C1141      O1142   1.260       .  A
C1141      C1701   1.485       .  S
C1143      O1145   1.261       .  A
C1143      O1149   1.259       .  A
C1143      C1721   1.477       .  S
C1147      C1741   1.476       .  S
In1150     O1152   2.238       .  S
In1150     O1153   2.276       .  S
In1150     O1161   2.291       .  S
In1150     O1155   2.231       .  S
In1150     O1157   2.256       .  S
In1150     O1158   2.261       .  S
In1150     O1159   2.223       .  S
In1150     O1162   2.249       .  S
C1151      O1157   1.262       .  A
C1151      O1159   1.258       .  A
C1151      C1661   1.470       .  S
O1152      C1160   1.257       .  A
O1153      C1160   1.263       .  A
C1154      O1161   1.265       .  A
C1154      O1155   1.258       .  A
C1154      C1681   1.487       .  S
C1156      O1158   1.263       .  A
C1156      O1162   1.262       .  A
C1156      C1781   1.485       .  S
C1160      C1810   1.483       .  S
In1163     O1165   2.249       .  S
In1163     O1166   2.247       .  S
In1163     O1174   2.277       .  S
In1163     O1168   2.239       .  S
In1163     O1170   2.266       .  S
In1163     O1171   2.256       .  S
In1163     O1172   2.230       .  S
In1163     O1175   2.237       .  S
C1164      O1170   1.261       .  A
C1164      O1172   1.256       .  A
C1164      C1761   1.474       .  S
O1165      C1173   1.261       .  A
O1166      C1173   1.261       .  A
C1167      O1174   1.263       .  A
C1167      O1168   1.259       .  A
C1167      C1690   1.485       .  S
C1169      O1171   1.263       .  A
C1169      O1175   1.260       .  A
C1169      C1621   1.478       .  S
C1173      C1641   1.477       .  S
In1176     O1178   2.241       .  S
In1176     O1179   2.243       .  S
In1176     O1187   2.264       .  S
In1176     O1181   2.224       .  S
In1176     O1183   2.242       .  S
In1176     O1184   2.254       .  S
In1176     O1185   2.240       .  S
In1176     O1188   2.216       .  S
C1177      O1183   1.261       .  A
C1177      O1185   1.259       .  A
C1177      C1670   1.472       .  S
O1178      C1186   1.261       .  A
O1179      C1186   1.260       .  A
C1180      O1187   1.263       .  A
C1180      O1181   1.258       .  A
C1180      C1601   1.475       .  S
C1182      O1184   1.262       .  A
C1182      O1188   1.258       .  A
C1182      C1830   1.470       .  S
C1186      C1841   1.475       .  S
In1189     O1191   2.242       .  S
In1189     O1192   2.270       .  S
In1189     O1200   2.291       .  S
In1189     O1194   2.226       .  S
In1189     O1196   2.247       .  S
In1189     O1197   2.284       .  S
In1189     O1198   2.234       .  S
In1189     O1201   2.241       .  S
C1190      O1196   1.261       .  A
C1190      O1198   1.260       .  A
C1190      C1590   1.472       .  S
O1191      C1199   1.260       .  A
O1192      C1199   1.263       .  A
C1193      O1200   1.265       .  A
C1193      O1194   1.257       .  A
C1193      C1710   1.486       .  S
C1195      O1197   1.263       .  A
C1195      O1201   1.257       .  A
C1195      C2210   1.485       .  S
C1199      C2181   1.484       .  S
In1202     O1204   2.243       .  S
In1202     O1205   2.244       .  S
In1202     O1213   2.248       .  S
In1202     O1207   2.232       .  S
In1202     O1209   2.264       .  S
In1202     O1210   2.239       .  S
In1202     O1211   2.233       .  S
In1202     O1214   2.244       .  S
C1203      O1209   1.260       .  A
C1203      O1211   1.256       .  A
C1203      C1581   1.473       .  S
O1204      C1212   1.260       .  A
O1205      C1212   1.259       .  A
C1206      O1213   1.262       .  A
C1206      O1207   1.261       .  A
C1206      C1610   1.475       .  S
C1208      O1210   1.261       .  A
C1208      O1214   1.261       .  A
C1208      C2130   1.475       .  S
C1212      C2141   1.473       .  S
In1215     O1217   2.225       .  S
In1215     O1218   2.252       .  S
In1215     O1226   2.255       .  S
In1215     O1220   2.225       .  S
In1215     O1222   2.244       .  S
In1215     O1223   2.275       .  S
In1215     O1224   2.226       .  S
In1215     O1227   2.201       .  S
C1216      O1222   1.263       .  A
C1216      O1224   1.261       .  A
C1216      C1561   1.471       .  S
O1217      C1225   1.261       .  A
O1218      C1225   1.264       .  A
C1219      O1226   1.262       .  A
C1219      O1220   1.258       .  A
C1219      C1541   1.472       .  S
C1221      O1223   1.265       .  A
C1221      O1227   1.257       .  A
C1221      C2021   1.474       .  S
C1225      C2041   1.475       .  S
In1228     O1230   2.222       .  S
In1228     O1231   2.258       .  S
In1228     O1239   2.264       .  S
In1228     O1233   2.239       .  S
In1228     O1235   2.262       .  S
In1228     O1236   2.260       .  S
In1228     O1237   2.225       .  S
In1228     O1240   2.228       .  S
C1229      O1235   1.261       .  A
C1229      O1237   1.257       .  A
C1229      C1570   1.472       .  S
O1230      C1238   1.260       .  A
O1231      C1238   1.264       .  A
C1232      O1239   1.262       .  A
C1232      O1233   1.258       .  A
C1232      C1521   1.477       .  S
C1234      O1236   1.263       .  A
C1234      O1240   1.260       .  A
C1234      C2070   1.477       .  S
C1238      C2090   1.476       .  S
In1241     O1243   2.278       .  S
In1241     O1244   2.243       .  S
In1241     O1252   2.287       .  S
In1241     O1246   2.237       .  S
In1241     O1248   2.257       .  S
In1241     O1249   2.266       .  S
In1241     O1250   2.240       .  S
In1241     O1253   2.258       .  S
C1242      O1248   1.260       .  A
C1242      O1250   1.258       .  A
C1242      C1461   1.474       .  S
O1243      C1251   1.265       .  A
O1244      C1251   1.259       .  A
C1245      O1252   1.265       .  A
C1245      O1246   1.259       .  A
C1245      C1441   1.487       .  S
C1247      O1249   1.260       .  A
C1247      O1253   1.259       .  A
C1247      C1510   1.484       .  S
C1251      C1481   1.486       .  S
In1254     O1256   2.241       .  S
In1254     O1257   2.260       .  S
In1254     O1265   2.281       .  S
In1254     O1259   2.228       .  S
In1254     O1261   2.258       .  S
In1254     O1262   2.272       .  S
In1254     O1263   2.237       .  S
In1254     O1266   2.234       .  S
C1255      O1261   1.260       .  A
C1255      O1263   1.258       .  A
C1255      C1470   1.473       .  S
O1256      C1264   1.261       .  A
O1257      C1264   1.262       .  A
C1258      O1265   1.264       .  A
C1258      O1259   1.257       .  A
C1258      C1530   1.482       .  S
C1260      O1262   1.263       .  A
C1260      O1266   1.258       .  A
C1260      C1421   1.481       .  S
C1264      C1401   1.479       .  S
In1267     O1269   2.232       .  S
In1267     O1270   2.265       .  S
In1267     O1278   2.277       .  S
In1267     O1272   2.237       .  S
In1267     O1274   2.259       .  S
In1267     O1275   2.278       .  S
In1267     O1276   2.220       .  S
In1267     O1279   2.223       .  S
C1268      O1274   1.264       .  A
C1268      O1276   1.260       .  A
C1268      C1381   1.474       .  S
O1269      C1277   1.261       .  A
O1270      C1277   1.264       .  A
C1271      O1278   1.263       .  A
C1271      O1272   1.259       .  A
C1271      C1450   1.483       .  S
C1273      O1275   1.265       .  A
C1273      O1279   1.258       .  A
C1273      C1881   1.479       .  S
C1277      C1910   1.482       .  S
In1280     O1282   2.234       .  S
In1280     O1283   2.256       .  S
In1280     O1291   2.260       .  S
In1280     O1285   2.232       .  S
In1280     O1287   2.248       .  S
In1280     O1288   2.263       .  S
In1280     O1289   2.237       .  S
In1280     O1292   2.226       .  S
C1281      O1287   1.261       .  A
C1281      O1289   1.260       .  A
C1281      C1390   1.474       .  S
O1282      C1290   1.259       .  A
O1283      C1290   1.261       .  A
C1284      O1291   1.262       .  A
C1284      O1285   1.258       .  A
C1284      C1550   1.476       .  S
C1286      O1288   1.262       .  A
C1286      O1292   1.259       .  A
C1286      C1970   1.476       .  S
C1290      C1950   1.476       .  S
C1293      C1350   1.557       .  S
C1293      C1361   1.558       .  S
C1293      C1650   1.555       .  S
C1294      C1321   1.554       .  S
C1294      C1370   1.556       .  S
C1294      C1750   1.552       .  S
C1295      C1301   1.558       .  S
C1295      C1490   1.559   1_554  S
C1296      C1310   1.564       .  S
C1296      C1410   1.556       .  S
C1297      C1298   1.399   1_556  A
C1297      C1302   1.392       .  A
C1297      H1307   1.083       .  S
C1298      C1303   1.481       .  S
C1299      C1300   1.406       .  A
C1299      H1304   1.083       .  S
C1300      H1305   1.079       .  S
C1301      C1302   1.415   1_554  A
C1302      H1306   1.083       .  S
C1303      C1312   1.402       .  A
C1308      C1309   1.393       .  A
C1308      H1313   1.084       .  S
C1309      C1310   1.417       .  A
C1309      H1314   1.078       .  S
C1311      C1312   1.406       .  A
C1311      H1315   1.083   1_554  S
C1312      H1316   1.082       .  S
C1317      C1318   1.400       .  A
C1317      C1322   1.402       .  A
C1317      H1327   1.083       .  S
C1318      C1323   1.478       .  S
C1319      C1320   1.398       .  A
C1319      H1324   1.083       .  S
C1320      H1325   1.083       .  S
C1321      C1322   1.417       .  A
C1322      H1326   1.079       .  S
C1323      C1328   1.402       .  A
C1328      C1329   1.407       .  A
C1328      H1333   1.083       .  S
C1329      C1330   1.415       .  A
C1329      H1334   1.083       .  S
C1331      C1332   1.396       .  A
C1331      H1335   1.080       .  S
C1332      H1336   1.084       .  S
C1337      C1342   1.403       .  A
C1337      H1347   1.083       .  S
C1338      C1343   1.478       .  S
C1338      C1339   1.400       .  A
C1339      C1340   1.394       .  A
C1339      H1344   1.083       .  S
C1340      C1341   1.414       .  A
C1340      H1345   1.083       .  S
C1342      H1346   1.080       .  S
C1343      C1352   1.399       .  A
C1348      C1349   1.405       .  A
C1348      H1353   1.083       .  S
C1349      H1354   1.083       .  S
C1350      C1351   1.415   1_556  A
C1351      C1352   1.392   1_554  A
C1351      H1355   1.078       .  S
C1352      H1356   1.084   1_556  S
C1357      C1358   1.400       .  A
C1357      C1362   1.396       .  A
C1357      H1367   1.081       .  S
C1359      C1360   1.399       .  A
C1359      H1364   1.085       .  S
C1360      H1365   1.076       .  S
C1361      C1362   1.415       .  A
C1362      H1366   1.085       .  S
C1363      C1368   1.403       .  A
C1368      C1369   1.398       .  A
C1368      H1373   1.079       .  S
C1369      C1370   1.413       .  A
C1369      H1374   1.084       .  S
C1371      C1372   1.399       .  A
C1371      H1375   1.078       .  S
C1372      H1376   1.080       .  S
C1377      C1378   1.404       .  A
C1377      C1382   1.392       .  A
C1377      H1387   1.083       .  S
C1378      C1383   1.484       .  S
C1378      C1379   1.408       .  A
C1379      C1380   1.401       .  A
C1379      H1384   1.082       .  S
C1380      C1381   1.404       .  A
C1380      H1385   1.083       .  S
C1381      C1382   1.403       .  A
C1382      H1386   1.083       .  S
C1383      C1388   1.406       .  A
C1383      C1392   1.406       .  A
C1388      C1389   1.394       .  A
C1388      H1393   1.082       .  S
C1389      C1390   1.402       .  A
C1389      H1394   1.084       .  S
C1390      C1391   1.404       .  A
C1391      C1392   1.399       .  A
C1391      H1395   1.082       .  S
C1392      H1396   1.083       .  S
C1397      C1398   1.410       .  A
C1397      C1402   1.402       .  A
C1397      H1407   1.083       .  S
C1398      C1403   1.497       .  S
C1398      C1399   1.409       .  A
C1399      C1400   1.396       .  A
C1399      H1404   1.081       .  S
C1400      C1401   1.402       .  A
C1400      H1405   1.084       .  S
C1401      C1402   1.404       .  A
C1402      H1406   1.082       .  S
C1403      C1408   1.407       .  A
C1403      C1412   1.405       .  A
C1408      C1409   1.399       .  A
C1408      H1413   1.082       .  S
C1409      C1410   1.413       .  A
C1409      H1414   1.084       .  S
C1410      C1411   1.415       .  A
C1411      C1412   1.396       .  A
C1411      H1415   1.078       .  S
C1412      H1416   1.083       .  S
C1417      C1418   1.403       .  A
C1417      C1422   1.394       .  A
C1417      H1427   1.084       .  S
C1418      C1423   1.483       .  S
C1418      C1419   1.406       .  A
C1419      C1420   1.405       .  A
C1419      H1424   1.082       .  S
C1420      C1421   1.407       .  A
C1420      H1425   1.083       .  S
C1421      C1422   1.404       .  A
C1422      H1426   1.083       .  S
C1423      C1428   1.402       .  A
C1423      C1432   1.402       .  A
C1428      C1429   1.394       .  A
C1428      H1433   1.084       .  S
C1429      C1430   1.412       .  A
C1429      H1434   1.079       .  S
C1430      C1431   1.417       .  A
C1431      C1432   1.403       .  A
C1431      H1435   1.083       .  S
C1432      H1436   1.083       .  S
C1437      C1438   1.407       .  A
C1437      C1442   1.396       .  A
C1437      H1447   1.083       .  S
C1438      C1443   1.497       .  S
C1438      C1439   1.410       .  A
C1439      C1440   1.408       .  A
C1439      H1444   1.082       .  S
C1440      C1441   1.406       .  A
C1440      H1445   1.083       .  S
C1441      C1442   1.405       .  A
C1442      H1446   1.083       .  S
C1443      C1448   1.408       .  A
C1443      C1452   1.410       .  A
C1448      C1449   1.397       .  A
C1448      H1453   1.082       .  S
C1449      C1450   1.403       .  A
C1449      H1454   1.084       .  S
C1450      C1451   1.406       .  A
C1451      C1452   1.406       .  A
C1451      H1455   1.082       .  S
C1452      H1456   1.083       .  S
C1457      C1458   1.405       .  A
C1457      C1462   1.395       .  A
C1457      H1467   1.083       .  S
C1458      C1463   1.484       .  S
C1458      C1459   1.406       .  A
C1459      C1460   1.399       .  A
C1459      H1464   1.083       .  S
C1460      C1461   1.404       .  A
C1460      H1465   1.083       .  S
C1461      C1462   1.403       .  A
C1462      H1466   1.083       .  S
C1463      C1468   1.405       .  A
C1463      C1472   1.407       .  A
C1468      C1469   1.393       .  A
C1468      H1473   1.083       .  S
C1469      C1470   1.402       .  A
C1469      H1474   1.083       .  S
C1470      C1471   1.405       .  A
C1471      C1472   1.400       .  A
C1471      H1475   1.083       .  S
C1472      H1476   1.083       .  S
C1477      C1478   1.404       .  A
C1477      C1482   1.400       .  A
C1477      H1487   1.083       .  S
C1478      C1483   1.488       .  S
C1478      C1479   1.407       .  A
C1479      C1480   1.404       .  A
C1479      H1484   1.082       .  S
C1480      C1481   1.405       .  A
C1480      H1485   1.083       .  S
C1481      C1482   1.407       .  A
C1482      H1486   1.083       .  S
C1483      C1488   1.405       .  A
C1483      C1492   1.401       .  A
C1488      C1489   1.403       .  A
C1488      H1493   1.083       .  S
C1489      C1490   1.415       .  A
C1489      H1494   1.079       .  S
C1490      C1491   1.416       .  A
C1491      C1492   1.398       .  A
C1491      H1495   1.083       .  S
C1492      H1496   1.083       .  S
C1497      C1498   1.402       .  A
C1497      C1502   1.398       .  A
C1497      H1507   1.083       .  S
C1498      C1503   1.495       .  S
C1498      C1499   1.408       .  A
C1499      C1500   1.404       .  A
C1499      H1504   1.082       .  S
C1500      C1501   1.413       .  A
C1500      H1505   1.083       .  S
C1501      C1502   1.416       .  A
C1502      H1506   1.080       .  S
C1503      C1508   1.409       .  A
C1503      C1512   1.407       .  A
C1508      C1509   1.401       .  A
C1508      H1513   1.082       .  S
C1509      C1510   1.405       .  A
C1509      H1514   1.083       .  S
C1510      C1511   1.406       .  A
C1511      C1512   1.403       .  A
C1511      H1515   1.083       .  S
C1512      H1516   1.083       .  S
C1517      C1518   1.410       .  A
C1517      C1522   1.398       .  A
C1517      H1527   1.081       .  S
C1518      C1523   1.499       .  S
C1518      C1519   1.410       .  A
C1519      C1520   1.401       .  A
C1519      H1524   1.082       .  S
C1520      C1521   1.402       .  A
C1520      H1525   1.083       .  S
C1521      C1522   1.402       .  A
C1522      H1526   1.084       .  S
C1523      C1528   1.408       .  A
C1523      C1532   1.412       .  A
C1528      C1529   1.396       .  A
C1528      H1533   1.082       .  S
C1529      C1530   1.404       .  A
C1529      H1534   1.083       .  S
C1530      C1531   1.403       .  A
C1531      C1532   1.404       .  A
C1531      H1535   1.084       .  S
C1532      H1536   1.081       .  S
C1537      C1538   1.406       .  A
C1537      C1542   1.398       .  A
C1537      H1547   1.083       .  S
C1538      C1543   1.483       .  S
C1538      C1539   1.405       .  A
C1539      C1540   1.395       .  A
C1539      H1544   1.083       .  S
C1540      C1541   1.404       .  A
C1540      H1545   1.083       .  S
C1541      C1542   1.403       .  A
C1542      H1546   1.083       .  S
C1543      C1548   1.406       .  A
C1543      C1552   1.405       .  A
C1548      C1549   1.400       .  A
C1548      H1553   1.083       .  S
C1549      C1550   1.404       .  A
C1549      H1554   1.083       .  S
C1550      C1551   1.404       .  A
C1551      C1552   1.395       .  A
C1551      H1555   1.083       .  S
C1552      H1556   1.083       .  S
C1557      C1558   1.405       .  A
C1557      C1562   1.392       .  A
C1557      H1567   1.083       .  S
C1558      C1563   1.481       .  S
C1558      C1559   1.405       .  A
C1559      C1560   1.398       .  A
C1559      H1564   1.083       .  S
C1560      C1561   1.404       .  A
C1560      H1565   1.083       .  S
C1561      C1562   1.402       .  A
C1562      H1566   1.083       .  S
C1563      C1568   1.404       .  A
C1563      C1572   1.407       .  A
C1568      C1569   1.391       .  A
C1568      H1573   1.083       .  S
C1569      C1570   1.403       .  A
C1569      H1574   1.083       .  S
C1570      C1571   1.404       .  A
C1571      C1572   1.400       .  A
C1571      H1575   1.083       .  S
C1572      H1576   1.082       .  S
C1577      C1578   1.402       .  A
C1577      C1582   1.393       .  A
C1577      H1587   1.084       .  S
C1578      C1583   1.477       .  S
C1578      C1579   1.406       .  A
C1579      C1580   1.399       .  A
C1579      H1584   1.082       .  S
C1580      C1581   1.404       .  A
C1580      H1585   1.083       .  S
C1581      C1582   1.404       .  A
C1582      H1586   1.083       .  S
C1583      C1588   1.404       .  A
C1583      C1592   1.404       .  A
C1588      C1589   1.392       .  A
C1588      H1593   1.083       .  S
C1589      C1590   1.402       .  A
C1589      H1594   1.084       .  S
C1590      C1591   1.405       .  A
C1591      C1592   1.399       .  A
C1591      H1595   1.083       .  S
C1592      H1596   1.083       .  S
C1597      C1598   1.408       .  A
C1597      C1602   1.401       .  A
C1597      H1607   1.083       .  S
C1598      C1603   1.485       .  S
C1598      C1599   1.405       .  A
C1599      C1600   1.394       .  A
C1599      H1604   1.083       .  S
C1600      C1601   1.403       .  A
C1600      H1605   1.083       .  S
C1601      C1602   1.403       .  A
C1602      H1606   1.083       .  S
C1603      C1608   1.406       .  A
C1603      C1612   1.406       .  A
C1608      C1609   1.400       .  A
C1608      H1613   1.083       .  S
C1609      C1610   1.405       .  A
C1609      H1614   1.083       .  S
C1610      C1611   1.403       .  A
C1611      C1612   1.394       .  A
C1611      H1615   1.083       .  S
C1612      H1616   1.083       .  S
C1617      C1618   1.406       .  A
C1617      C1622   1.398       .  A
C1617      H1627   1.083       .  S
C1618      C1623   1.485       .  S
C1618      C1619   1.405       .  A
C1619      C1620   1.401       .  A
C1619      H1624   1.083       .  S
C1620      C1621   1.405       .  A
C1620      H1625   1.083       .  S
C1621      C1622   1.404       .  A
C1622      H1626   1.083       .  S
C1623      C1628   1.400       .  A
C1623      C1632   1.404       .  A
C1628      C1629   1.397       .  A
C1628      H1633   1.083       .  S
C1629      C1630   1.416       .  A
C1629      H1634   1.078       .  S
C1630      C1631   1.414       .  A
C1631      C1632   1.400       .  A
C1631      H1635   1.083       .  S
C1632      H1636   1.083       .  S
C1637      C1638   1.409       .  A
C1637      C1642   1.399       .  A
C1637      H1647   1.081       .  S
C1638      C1643   1.495       .  S
C1638      C1639   1.410       .  A
C1639      C1640   1.398       .  A
C1639      H1644   1.082       .  S
C1640      C1641   1.402       .  A
C1640      H1645   1.083       .  S
C1641      C1642   1.404       .  A
C1642      H1646   1.084       .  S
C1643      C1648   1.406       .  A
C1643      C1652   1.406       .  A
C1648      C1649   1.399       .  A
C1648      H1653   1.082       .  S
C1649      C1650   1.414       .  A
C1649      H1654   1.077       .  S
C1650      C1651   1.412       .  A
C1651      C1652   1.395       .  A
C1651      H1655   1.083       .  S
C1652      H1656   1.081       .  S
C1657      C1658   1.408       .  A
C1657      C1662   1.398       .  A
C1657      H1667   1.083       .  S
C1658      C1663   1.483       .  S
C1658      C1659   1.404       .  A
C1659      C1660   1.393       .  A
C1659      H1664   1.083       .  S
C1660      C1661   1.403       .  A
C1660      H1665   1.083       .  S
C1661      C1662   1.402       .  A
C1662      H1666   1.083       .  S
C1663      C1668   1.405       .  A
C1663      C1672   1.407       .  A
C1668      C1669   1.396       .  A
C1668      H1673   1.083       .  S
C1669      C1670   1.403       .  A
C1669      H1674   1.083       .  S
C1670      C1671   1.403       .  A
C1671      C1672   1.395       .  A
C1671      H1675   1.083       .  S
C1672      H1676   1.082       .  S
C1677      C1678   1.410       .  A
C1677      C1682   1.408       .  A
C1677      H1687   1.083       .  S
C1678      C1683   1.496       .  S
C1678      C1679   1.406       .  A
C1679      C1680   1.395       .  A
C1679      H1684   1.082       .  S
C1680      C1681   1.405       .  A
C1680      H1685   1.084       .  S
C1681      C1682   1.407       .  A
C1682      H1686   1.083       .  S
C1683      C1688   1.409       .  A
C1683      C1692   1.407       .  A
C1688      C1689   1.406       .  A
C1688      H1693   1.082       .  S
C1689      C1690   1.406       .  A
C1689      H1694   1.083       .  S
C1690      C1691   1.404       .  A
C1691      C1692   1.397       .  A
C1691      H1695   1.083       .  S
C1692      H1696   1.083       .  S
C1697      C1698   1.406       .  A
C1697      C1702   1.394       .  A
C1697      H1707   1.083       .  S
C1698      C1703   1.496       .  S
C1698      C1699   1.410       .  A
C1699      C1700   1.409       .  A
C1699      H1704   1.082       .  S
C1700      C1701   1.408       .  A
C1700      H1705   1.083       .  S
C1701      C1702   1.403       .  A
C1702      H1706   1.083       .  S
C1703      C1708   1.406       .  A
C1703      C1712   1.410       .  A
C1708      C1709   1.394       .  A
C1708      H1713   1.083       .  S
C1709      C1710   1.404       .  A
C1709      H1714   1.083       .  S
C1710      C1711   1.407       .  A
C1711      C1712   1.409       .  A
C1711      H1715   1.083       .  S
C1712      H1716   1.083       .  S
C1717      C1718   1.407       .  A
C1717      C1722   1.397       .  A
C1717      H1727   1.083       .  S
C1718      C1723   1.491       .  S
C1718      C1719   1.408       .  A
C1719      C1720   1.400       .  A
C1719      H1724   1.082       .  S
C1720      C1721   1.404       .  A
C1720      H1725   1.083       .  S
C1721      C1722   1.403       .  A
C1722      H1726   1.083       .  S
C1723      C1728   1.404       .  A
C1723      C1732   1.406       .  A
C1728      C1729   1.393       .  A
C1728      H1733   1.082       .  S
C1729      C1730   1.412       .  A
C1729      H1734   1.084       .  S
C1730      C1731   1.412       .  A
C1731      C1732   1.402       .  A
C1731      H1735   1.079       .  S
C1732      H1736   1.084       .  S
C1737      C1738   1.404       .  A
C1737      C1742   1.394       .  A
C1737      H1747   1.083       .  S
C1738      C1743   1.482       .  S
C1738      C1739   1.406       .  A
C1739      C1740   1.401       .  A
C1739      H1744   1.083       .  S
C1740      C1741   1.405       .  A
C1740      H1745   1.083       .  S
C1741      C1742   1.403       .  A
C1742      H1746   1.083       .  S
C1743      C1748   1.403       .  A
C1743      C1752   1.401       .  A
C1748      C1749   1.400       .  A
C1748      H1753   1.082       .  S
C1749      C1750   1.414       .  A
C1749      H1754   1.083       .  S
C1750      C1751   1.414       .  A
C1751      C1752   1.392       .  A
C1751      H1755   1.079       .  S
C1752      H1756   1.083       .  S
C1757      C1758   1.405       .  A
C1757      C1762   1.393       .  A
C1757      H1767   1.083       .  S
C1758      C1763   1.485       .  S
C1758      C1759   1.407       .  A
C1759      C1760   1.400       .  A
C1759      H1764   1.083       .  S
C1760      C1761   1.403       .  A
C1760      H1765   1.083       .  S
C1761      C1762   1.403       .  A
C1762      H1766   1.083       .  S
C1763      C1768   1.406       .  A
C1763      C1772   1.407       .  A
C1768      C1769   1.395       .  A
C1768      H1773   1.083       .  S
C1769      C1770   1.404       .  A
C1769      H1774   1.083       .  S
C1770      C1771   1.403       .  A
C1771      C1772   1.399       .  A
C1771      H1775   1.083       .  S
C1772      H1776   1.083       .  S
C1777      C1778   1.408       .  A
C1777      C1782   1.403       .  A
C1777      H1787   1.083       .  S
C1778      C1783   1.495       .  S
C1778      C1779   1.408       .  A
C1779      C1780   1.400       .  A
C1779      H1784   1.083       .  S
C1780      C1781   1.405       .  A
C1780      H1785   1.083       .  S
C1781      C1782   1.406       .  A
C1782      H1786   1.083       .  S
C1783      C1788   1.406       .  A
C1783      C1792   1.403       .  A
C1788      C1789   1.403       .  A
C1788      H1793   1.083       .  S
C1789      C1790   1.414       .  A
C1789      H1794   1.082       .  S
C1790      C1791   1.417       .  A
C1791      C1792   1.398       .  A
C1791      H1795   1.079   1_556  S
C1792      H1796   1.082       .  S
C1797      C1798   1.402       .  A
C1797      C1802   1.400       .  A
C1797      H1807   1.083       .  S
C1798      C1803   1.488       .  S
C1798      C1799   1.404       .  A
C1799      C1800   1.399       .  A
C1799      H1804   1.083       .  S
C1800      C1801   1.414       .  A
C1800      H1805   1.078       .  S
C1801      C1802   1.415       .  A
C1802      H1806   1.083       .  S
C1803      C1808   1.407       .  A
C1803      C1812   1.405       .  A
C1808      C1809   1.404       .  A
C1808      H1813   1.083       .  S
C1809      C1810   1.406       .  A
C1809      H1814   1.083       .  S
C1810      C1811   1.405       .  A
C1811      C1812   1.397       .  A
C1811      H1815   1.083       .  S
C1812      H1816   1.083       .  S
C1817      C1818   1.400       .  A
C1817      C1822   1.390       .  A
C1817      H1827   1.083       .  S
C1818      C1823   1.479       .  S
C1818      C1819   1.403       .  A
C1819      C1820   1.398       .  A
C1819      H1824   1.083       .  S
C1820      C1821   1.413       .  A
C1820      H1825   1.080       .  S
C1821      C1822   1.412       .  A
C1822      H1826   1.083       .  S
C1823      C1828   1.403       .  A
C1823      C1832   1.406       .  A
C1828      C1829   1.390       .  A
C1828      H1833   1.083       .  S
C1829      C1830   1.403       .  A
C1829      H1834   1.083       .  S
C1830      C1831   1.404       .  A
C1831      C1832   1.399       .  A
C1831      H1835   1.083       .  S
C1832      H1836   1.083       .  S
C1837      C1838   1.406       .  A
C1837      C1842   1.395       .  A
C1837      H1847   1.083       .  S
C1838      C1843   1.481       .  S
C1838      C1839   1.404       .  A
C1839      C1840   1.399       .  A
C1839      H1844   1.083       .  S
C1840      C1841   1.406       .  A
C1840      H1845   1.083       .  S
C1841      C1842   1.403       .  A
C1842      H1846   1.083       .  S
C1843      C1848   1.404       .  A
C1843      C1852   1.400       .  A
C1848      C1849   1.398       .  A
C1848      H1853   1.083       .  S
C1849      C1850   1.411       .  A
C1849      H1854   1.082       .  S
C1850      C1851   1.415       .  A
C1851      C1852   1.394       .  A
C1851      H1855   1.081       .  S
C1852      H1856   1.083       .  S
C1857      C1858   1.399       .  A
C1857      C1862   1.391       .  A
C1857      H1867   1.084       .  S
C1858      C1863   1.476       .  S
C1859      C1860   1.404       .  A
C1859      H1864   1.083       .  S
C1860      H1865   1.080       .  S
C1861      C1862   1.412       .  A
C1862      H1866   1.083       .  S
C1863      C1872   1.396       .  A
C1868      C1869   1.406       .  A
C1868      H1873   1.083       .  S
C1869      H1874   1.083       .  S
C1870      C1871   1.417       .  A
C1871      C1872   1.389       .  A
C1871      H1875   1.080       .  S
C1872      H1876   1.084       .  S
C1877      C1878   1.406       .  A
C1877      C1882   1.394       .  A
C1877      H1887   1.082       .  S
C1878      C1883   1.493       .  S
C1878      C1879   1.411       .  A
C1879      C1880   1.404       .  A
C1879      H1884   1.082       .  S
C1880      C1881   1.404       .  A
C1880      H1885   1.083       .  S
C1881      C1882   1.404       .  A
C1882      H1886   1.083       .  S
C1883      C1888   1.406       .  A
C1883      C1892   1.404       .  A
C1888      C1889   1.397       .  A
C1888      H1893   1.083       .  S
C1889      C1890   1.411       .  A
C1889      H1894   1.083   1_556  S
C1890      C1891   1.415       .  A
C1891      C1892   1.399       .  A
C1891      H1895   1.079       .  S
C1892      H1896   1.082       .  S
C1897      C1898   1.400       .  A
C1897      C1902   1.404       .  A
C1897      H1907   1.083       .  S
C1898      C1903   1.479       .  S
C1898      C1899   1.399       .  A
C1899      C1900   1.395       .  A
C1899      H1904   1.084       .  S
C1900      C1901   1.414       .  A
C1900      H1905   1.079       .  S
C1901      C1902   1.417       .  A
C1902      H1906   1.083       .  S
C1903      C1908   1.404       .  A
C1903      C1912   1.402       .  A
C1908      C1909   1.405       .  A
C1908      H1913   1.083       .  S
C1909      C1910   1.408       .  A
C1909      H1914   1.083       .  S
C1910      C1911   1.405       .  A
C1911      C1912   1.396       .  A
C1911      H1915   1.083       .  S
C1912      H1916   1.083       .  S
C1917      C1922   1.390       .  A
C1917      H1927   1.084       .  S
C1918      C1923   1.481       .  S
C1918      C1919   1.404       .  A
C1919      C1920   1.403       .  A
C1919      H1924   1.083       .  S
C1920      C1921   1.415       .  A
C1920      H1925   1.079       .  S
C1922      H1926   1.083       .  S
C1923      C1932   1.402   1_655  A
C1928      C1929   1.392       .  A
C1928      H1933   1.084   1_455  S
C1929      H1934   1.081       .  S
C1930      C1931   1.415       .  A
C1931      C1932   1.401       .  A
C1931      H1935   1.083       .  S
C1932      H1936   1.083       .  S
C1937      C1938   1.400       .  A
C1937      C1942   1.403       .  A
C1937      H1947   1.083       .  S
C1938      C1943   1.476       .  S
C1938      C1939   1.398       .  A
C1939      C1940   1.392       .  A
C1939      H1944   1.084       .  S
C1940      C1941   1.414       .  A
C1940      H1945   1.079       .  S
C1941      C1942   1.418       .  A
C1942      H1946   1.083       .  S
C1943      C1948   1.402       .  A
C1943      C1952   1.403       .  A
C1948      C1949   1.394       .  A
C1948      H1953   1.084       .  S
C1949      C1950   1.403       .  A
C1949      H1954   1.083       .  S
C1950      C1951   1.407       .  A
C1951      C1952   1.402       .  A
C1951      H1955   1.083       .  S
C1952      H1956   1.083       .  S
C1957      C1958   1.410       .  A
C1957      C1962   1.399       .  A
C1957      H1967   1.079       .  S
C1958      C1963   1.506       .  S
C1958      C1959   1.410       .  A
C1959      C1960   1.394       .  A
C1959      H1964   1.080       .  S
C1960      C1961   1.411       .  A
C1960      H1965   1.083       .  S
C1961      C1962   1.412       .  A
C1962      H1966   1.079       .  S
C1963      C1968   1.415       .  A
C1963      C1972   1.411       .  A
C1968      C1969   1.403       .  A
C1968      H1973   1.079       .  S
C1969      C1970   1.402       .  A
C1969      H1974   1.083       .  S
C1970      C1971   1.400       .  A
C1971      C1972   1.392       .  A
C1971      H1975   1.083       .  S
C1972      H1976   1.080       .  S
C1977      C1978   1.408       .  A
C1977      C1982   1.396       .  A
C1977      H1987   1.081       .  S
C1978      C1983   1.503       .  S
C1979      C1980   1.403       .  A
C1979      H1984   1.081       .  S
C1980      H1985   1.079       .  S
C1981      C1982   1.411       .  A
C1982      H1986   1.083       .  S
C1983      C1988   1.407   1_655  A
C1988      C1989   1.394       .  A
C1988      H1993   1.080   1_455  S
C1989      C1990   1.412       .  A
C1989      H1994   1.084       .  S
C1991      C1992   1.406       .  A
C1991      H1995   1.080       .  S
C1992      H1996   1.081   1_455  S
C1997      C1998   1.401       .  A
C1997      C2002   1.401       .  A
C1997      H2007   1.083       .  S
C1998      C2003   1.484       .  S
C1999      C2000   1.400       .  A
C1999      H2004   1.083       .  S
C2000      H2005   1.079       .  S
C2001      C2002   1.416       .  A
C2002      H2006   1.083       .  S
C2003      C2012   1.401       .  A
C2008      C2009   1.401       .  A
C2008      H2013   1.083       .  S
C2009      H2014   1.083       .  S
C2010      C2011   1.418       .  A
C2011      C2012   1.402       .  A
C2011      H2015   1.080       .  S
C2012      H2016   1.083       .  S
C2017      C2018   1.413       .  A
C2017      C2022   1.405       .  A
C2017      H2027   1.081       .  S
C2018      C2023   1.495       .  S
C2018      C2019   1.407       .  A
C2019      C2020   1.388       .  A
C2019      H2024   1.081       .  S
C2020      C2021   1.401       .  A
C2020      H2025   1.083       .  S
C2021      C2022   1.403       .  A
C2022      H2026   1.083       .  S
C2023      C2028   1.406       .  A
C2023      C2032   1.406       .  A
C2028      C2029   1.400       .  A
C2028      H2033   1.081       .  S
C2029      C2030   1.414       .  A
C2029      H2034   1.078       .  S
C2030      C2031   1.412       .  A
C2031      C2032   1.392       .  A
C2031      H2035   1.083       .  S
C2032      H2036   1.082       .  S
C2037      C2038   1.403       .  A
C2037      C2042   1.401       .  A
C2037      H2047   1.083       .  S
C2038      C2043   1.475       .  S
C2038      C2039   1.402       .  A
C2039      C2040   1.394       .  A
C2039      H2044   1.084       .  S
C2040      C2041   1.405       .  A
C2040      H2045   1.083       .  S
C2041      C2042   1.406       .  A
C2042      H2046   1.084       .  S
C2043      C2048   1.399       .  A
C2043      C2052   1.399       .  A
C2048      C2049   1.400       .  A
C2048      H2053   1.083       .  S
C2049      C2050   1.416       .  A
C2049      H2054   1.083       .  S
C2050      C2051   1.415       .  A
C2051      C2052   1.392       .  A
C2051      H2055   1.078       .  S
C2052      H2056   1.084       .  S
C2057      C2058   1.403       .  A
C2057      C2062   1.399       .  A
C2057      H2067   1.083       .  S
C2058      C2063   1.485       .  S
C2058      C2059   1.401       .  A
C2059      C2060   1.394       .  A
C2059      H2064   1.083       .  S
C2060      C2061   1.416       .  A
C2060      H2065   1.079       .  S
C2061      C2062   1.414       .  A
C2062      H2066   1.082       .  S
C2063      C2068   1.405       .  A
C2063      C2072   1.407       .  A
C2068      C2069   1.394       .  A
C2068      H2073   1.083       .  S
C2069      C2070   1.404       .  A
C2069      H2074   1.083       .  S
C2070      C2071   1.405       .  A
C2071      C2072   1.402       .  A
C2071      H2075   1.083       .  S
C2072      H2076   1.083       .  S
C2077      C2078   1.401       .  A
C2077      C2082   1.393       .  A
C2077      H2087   1.083       .  S
C2078      C2083   1.477       .  S
C2078      C2079   1.399       .  A
C2079      C2080   1.399       .  A
C2079      H2084   1.083       .  S
C2080      C2081   1.417       .  A
C2080      H2085   1.083       .  S
C2081      C2082   1.411       .  A
C2082      H2086   1.079       .  S
C2083      C2088   1.402       .  A
C2083      C2092   1.405       .  A
C2088      C2089   1.392       .  A
C2088      H2093   1.083       .  S
C2089      C2090   1.404       .  A
C2089      H2094   1.083       .  S
C2090      C2091   1.407       .  A
C2091      C2092   1.403       .  A
C2091      H2095   1.083       .  S
C2092      H2096   1.083       .  S
C2097      C2102   1.392       .  A
C2097      H2107   1.083       .  S
C2098      C2103   1.484       .  S
C2098      C2099   1.405       .  A
C2099      C2100   1.405       .  A
C2099      H2104   1.082       .  S
C2100      C2101   1.415       .  A
C2100      H2105   1.083       .  S
C2102      H2106   1.080       .  S
C2103      C2108   1.403       .  A
C2108      C2109   1.396       .  A
C2108      H2113   1.083       .  S
C2109      C2110   1.413       .  A
C2109      H2114   1.083       .  S
C2111      C2112   1.402       .  A
C2111      H2115   1.079       .  S
C2112      H2116   1.083       .  S
C2117      C2118   1.402       .  A
C2117      C2122   1.399       .  A
C2117      H2127   1.083       .  S
C2118      C2123   1.484       .  S
C2118      C2119   1.403       .  A
C2119      C2120   1.393       .  A
C2119      H2124   1.083       .  S
C2120      C2121   1.411       .  A
C2120      H2125   1.083       .  S
C2121      C2122   1.417       .  A
C2122      H2126   1.079   1_556  S
C2123      C2128   1.406       .  A
C2123      C2132   1.405       .  A
C2128      C2129   1.399       .  A
C2128      H2133   1.082       .  S
C2129      C2130   1.404       .  A
C2129      H2134   1.083       .  S
C2130      C2131   1.403       .  A
C2131      C2132   1.395       .  A
C2131      H2135   1.083       .  S
C2132      H2136   1.083       .  S
C2137      C2138   1.404       .  A
C2137      C2142   1.398       .  A
C2137      H2147   1.083       .  S
C2138      C2143   1.478       .  S
C2138      C2139   1.404       .  A
C2139      C2140   1.395       .  A
C2139      H2144   1.083       .  S
C2140      C2141   1.403       .  A
C2140      H2145   1.083       .  S
C2141      C2142   1.405       .  A
C2142      H2146   1.083       .  S
C2143      C2148   1.402       .  A
C2143      C2152   1.401       .  A
C2148      C2149   1.399       .  A
C2148      H2153   1.083       .  S
C2149      C2150   1.415       .  A
C2149      H2154   1.079       .  S
C2150      C2151   1.412       .  A
C2151      C2152   1.391       .  A
C2151      H2155   1.084       .  S
C2152      H2156   1.083       .  S
C2157      C2158   1.404       .  A
C2157      C2162   1.402   1_565  A
C2157      H2167   1.083       .  S
C2158      C2163   1.481       .  S
C2159      C2160   1.389       .  A
C2159      H2164   1.083   1_545  S
C2160      H2165   1.083       .  S
C2161      C2162   1.413       .  A
C2162      H2166   1.079       .  S
C2163      C2172   1.402       .  A
C2168      C2169   1.389       .  A
C2168      H2173   1.084       .  S
C2169      H2174   1.079       .  S
C2170      C2171   1.416       .  A
C2171      C2172   1.402       .  A
C2171      H2175   1.083       .  S
C2172      H2176   1.083       .  S
C2177      C2178   1.405       .  A
C2177      C2182   1.405       .  A
C2177      H2187   1.083       .  S
C2178      C2183   1.484       .  S
C2178      C2179   1.403       .  A
C2179      C2180   1.397       .  A
C2179      H2184   1.083       .  S
C2180      C2181   1.405       .  A
C2180      H2185   1.083       .  S
C2181      C2182   1.408       .  A
C2182      H2186   1.082       .  S
C2183      C2188   1.402       .  A
C2183      C2192   1.401       .  A
C2188      C2189   1.405       .  A
C2188      H2193   1.083       .  S
C2189      C2190   1.416       .  A
C2189      H2194   1.083       .  S
C2190      C2191   1.414       .  A
C2191      C2192   1.396       .  A
C2191      H2195   1.080       .  S
C2192      H2196   1.083       .  S
C2197      C2198   1.407       .  A
C2197      C2202   1.398       .  A
C2197      H2207   1.082       .  S
C2198      C2203   1.500       .  S
C2198      C2199   1.408       .  A
C2199      C2200   1.403       .  A
C2199      H2204   1.082       .  S
C2200      C2201   1.413       .  A
C2200      H2205   1.080       .  S
C2201      C2202   1.412       .  A
C2202      H2206   1.083       .  S
C2203      C2208   1.408       .  A
C2203      C2212   1.411       .  A
C2208      C2209   1.398       .  A
C2208      H2213   1.082       .  S
C2209      C2210   1.405       .  A
C2209      H2214   1.083       .  S
C2210      C2211   1.404       .  A
C2211      C2212   1.405       .  A
C2211      H2215   1.083       .  S
C2212      H2216   1.082       .  S
C2217      C2222   1.402       .  A
C2217      H2227   1.083       .  S
C2218      C2223   1.489       .  S
C2218      C2219   1.401       .  A
C2219      C2220   1.397       .  A
C2219      H2224   1.083       .  S
C2220      C2221   1.416       .  A
C2220      H2225   1.082       .  S
C2222      H2226   1.080       .  S
C2223      C2232   1.403   1_565  A
C2228      C2229   1.399       .  A
C2228      H2233   1.083   1_545  S
C2229      H2234   1.079       .  S
C2230      C2231   1.414       .  A
C2231      C2232   1.399       .  A
C2231      H2235   1.083       .  S
C2232      H2236   1.083   1_545  S
C2237      C2238   1.401       .  A
C2237      C2242   1.397       .  A
C2237      H2247   1.083       .  S
C2238      C2243   1.483       .  S
C2239      C2240   1.399       .  A
C2239      H2244   1.083       .  S
C2240      H2245   1.078       .  S
C2241      C2242   1.415       .  A
C2242      H2246   1.083       .  S
C2243      C2248   1.402       .  A
C2248      C2249   1.399       .  A
C2248      H2253   1.083       .  S
C2249      C2250   1.415       .  A
C2249      H2254   1.083       .  S
C2251      C2252   1.397       .  A
C2251      H2255   1.081       .  S
C2252      H2256   1.083       .  S
