geometry optimzed in LAMMPS
_audit_creation_date              2020-11-30 
_audit_creation_method            'lammps2cif' 
_symmetry_space_group_name_H-M    'P1' 
_symmetry_Int_Tables_number       1 
_symmetry_cell_setting            triclinic 
loop_ 
_symmetry_equiv_pos_as_xyz 
  x,y,z 
_cell_length_a                    28.74076908755247 
_cell_length_b                    20.54131031530677 
_cell_length_c                    55.42125459878621 
_cell_angle_alpha                 88.63761933568897 
_cell_angle_beta                  89.87964533824334 
_cell_angle_gamma                 89.24740059541524 
loop_ 
_atom_site_label 
_atom_site_type_symbol 
_atom_site_fract_x 
_atom_site_fract_y 
_atom_site_fract_z 
_atom_site_charge 
O1          O  0.20736663  0.41724810  0.79752001    -0.57870
C2          C  0.18777531  0.30693289  0.85910846     0.74760
O3          O  0.30512016  0.29499810  0.79729240    -0.59030
C4          C  0.24247346  0.43911638  0.78612093     0.74730
C5          C  0.31460285  0.41283260  0.86078409     0.77120
Cd6        Cd  0.25586421  0.35347754  0.82625452     1.37460
O7          O  0.17969624  0.35471697  0.84467180    -0.57870
O8          O  0.28216780  0.44393657  0.85001764    -0.56680
C9          C  0.27065068  0.26570366  0.78853069     0.77080
O10         O  0.32059196  0.35381269  0.85496743    -0.59050
O11         O  0.22714057  0.27890100  0.85746469    -0.57500
O12         O  0.28142316  0.43294894  0.79652763    -0.57490
O13         O  0.23469715  0.26237418  0.80161837    -0.56660
O14         O  0.17604660  0.12356035  0.62562032    -0.57870
C15         C  0.23352502  0.02637026  0.68688310     0.74760
O16         O  0.31838714  0.11131904  0.62540445    -0.59030
C17         C  0.18599490  0.17674165  0.61479952     0.74730
C18         C  0.26326280  0.19961723  0.68783979     0.77120
Cd19       Cd  0.24756399  0.11605819  0.64864058     1.37470
O20         O  0.19896026  0.04269484  0.67369083    -0.57870
O21         O  0.22340102  0.18106078  0.68156646    -0.56680
C22         C  0.30985389  0.05863707  0.61483931     0.77080
O23         O  0.29634184  0.18853026  0.67318199    -0.59050
O24         O  0.27340460  0.04298673  0.67947014    -0.57500
O25         O  0.22261867  0.20510799  0.62125974    -0.57490
O26         O  0.27344465  0.02865758  0.62119100    -0.56660
C27         C  0.31093548  0.49628552  0.44316504    -0.02540
C28         C  0.43970411  0.50744654  0.53462354    -0.02540
C29         C  0.42978794  0.00393330  0.94041543    -0.02540
C30         C  0.31314437  0.99708017  0.03622115    -0.02540
O31         O  0.45104837  0.19846542  0.29534104    -0.57870
C32         C  0.42210749  0.08066201  0.35674660     0.74760
O33         O  0.04249275  0.06297132  0.29909435    -0.59030
C34         C  0.98820444  0.21719263  0.28503808     0.74730
C35         C  0.05520499  0.18304836  0.36092988     0.77120
Cd36       Cd  0.99343726  0.13055161  0.32557387     1.37460
O37         O  0.41549788  0.13216674  0.34396397    -0.57870
O38         O  0.01792934  0.21264758  0.35481889    -0.56680
C39         C  0.50749557  0.04034902  0.28832566     0.77080
O40         O  0.06431473  0.12987065  0.35053935    -0.59050
O41         O  0.46056738  0.05075944  0.35398619    -0.57500
O42         O  0.02542161  0.20844684  0.29678811    -0.57490
O43         O  0.46870898  0.04624671  0.29881509    -0.56660
O44         O  0.05665631  0.45635443  0.17584235    -0.57870
C45         C  0.07421950  0.33970893  0.11297289     0.74760
O46         O  0.46054235  0.31413351  0.17054119    -0.59030
C47         C  0.52078959  0.46909676  0.18845456     0.74730
C48         C  0.44288730  0.45603651  0.11689675     0.77120
Cd49       Cd  0.00993466  0.39132310  0.14748041     1.37460
O50         O  0.08046819  0.39493291  0.12217793    -0.57870
O51         O  0.48013652  0.48393194  0.12272787    -0.56680
C52         C  0.99348493  0.29955092  0.18503272     0.77080
O53         O  0.43663081  0.39914267  0.12564293    -0.59050
O54         O  0.03969391  0.30735067  0.12055950    -0.57500
O55         O  0.48190624  0.45510293  0.17952372    -0.57490
O56         O  0.03389441  0.31736783  0.17893655    -0.56660
C57         C  0.05866989  0.24564901  0.93911470    -0.02540
C58         C  0.18925631  0.24782597  0.03049978    -0.02540
C59         C  0.18615403  0.24577801  0.43950599    -0.02540
C60         C  0.06133744  0.25351533  0.53296341    -0.02540
C61         C  0.11271930  0.28852946  0.46578079    -0.01900
C62         C  0.15565408  0.25164619  0.46421228     0.07780
C63         C  0.16511638  0.21882329  0.48667230    -0.02020
C64         C  0.14344423  0.24063996  0.50802292    -0.02020
C65         C  0.09358967  0.25283476  0.50814239     0.07910
C66         C  0.07919304  0.27229694  0.48403813    -0.02220
Br67       Br  0.02529445  0.24182007  0.46820515    -0.00760
Br68       Br  0.09143982  0.35268764  0.44262601    -0.00840
Br69       Br  0.18843909  0.27045081  0.53154466    -0.00800
Br70       Br  0.19824097  0.13843907  0.49078691    -0.00780
C71         C  0.07355854  0.24669768  0.98666152    -0.01900
C72         C  0.09278034  0.24405979  0.96272061     0.07780
C73         C  0.14311591  0.23651940  0.96250675    -0.02020
C74         C  0.16914185  0.22183011  0.98392134    -0.02020
C75         C  0.15309269  0.23907395  0.00737638     0.07910
C76         C  0.10191533  0.24164011  0.00817870    -0.02220
Br77       Br  0.06473580  0.22514825  0.03739019    -0.00760
Br78       Br  0.00631445  0.25430881  0.99089487    -0.00840
Br79       Br  0.22604961  0.17293098  0.97879607    -0.00800
Br80       Br  0.18479939  0.26127722  0.93615069    -0.00780
C81         C  0.15506602  0.23110812  0.07653265    -0.01900
C82         C  0.15849006  0.26674135  0.05343871     0.07780
C83         C  0.13235738  0.32773039  0.05189646    -0.02020
C84         C  0.10451279  0.34901082  0.07116120    -0.02020
C85         C  0.10421180  0.31552389  0.09328766     0.07910
C86         C  0.12946574  0.25740859  0.09608283    -0.02220
Br87       Br  0.12983800  0.21609996  0.12805099    -0.00760
Br88       Br  0.18615999  0.15001522  0.08582427    -0.00840
Br89       Br  0.06041696  0.41970185  0.06632860    -0.00800
Br90       Br  0.12532251  0.38060322  0.02243418    -0.00780
C91         C  0.12883118  0.23370774  0.37490459    -0.01900
C92         C  0.08539467  0.20685568  0.38037596     0.07780
C93         C  0.07466312  0.18992615  0.40430861    -0.02020
C94         C  0.10738686  0.19900869  0.42284094    -0.02020
C95         C  0.14984967  0.23528675  0.41839867     0.07910
C96         C  0.16199948  0.24315273  0.39332521    -0.02220
Br97       Br  0.22535479  0.25442282  0.38253477    -0.00760
Br98       Br  0.14337502  0.25461352  0.34157141    -0.00840
Br99       Br  0.10063717  0.13575345  0.44963681    -0.00800
Br100      Br  0.01798944  0.14236612  0.41081983    -0.00780
C101        C  0.02008288  0.22646159  0.21861014    -0.01900
C102        C  0.98606297  0.26987898  0.20927381     0.07780
C103        C  0.45231791  0.29660550  0.22499830    -0.02020
C104        C  0.45345230  0.28085854  0.24991657    -0.02020
C105        C  0.98908197  0.24002330  0.25942656     0.07910
C106        C  0.02293521  0.21369697  0.24356016    -0.02220
Br107      Br  0.07440342  0.16012561  0.25516533    -0.00760
Br108      Br  0.06252950  0.18295569  0.19689284    -0.00840
Br109      Br  0.40860799  0.32020346  0.27130400    -0.00800
Br110      Br  0.40639136  0.35887794  0.21310860    -0.00780
C111        C  0.48632501  0.03468612  0.22110074    -0.01900
C112        C  0.52250137  0.49353417  0.21334517     0.07780
C113        C  0.05311816  0.46472103  0.23065747    -0.02020
C114        C  0.04771568  0.47821835  0.25538147    -0.02020
C115        C  0.51039143  0.01770050  0.26314920     0.07910
C116        C  0.47881069  0.04426703  0.24578979    -0.02220
Br117      Br  0.42446279  0.09449901  0.25499983    -0.00760
Br118      Br  0.44704677  0.08022856  0.19764737    -0.00840
Br119      Br  0.08916889  0.43821070  0.27891338    -0.00800
Br120      Br  0.10024624  0.40250635  0.22117242    -0.00780
C121        C  0.29425435  0.12245167  0.04275313    -0.01900
C122        C  0.27733887  0.05889102  0.03990474     0.07780
C123        C  0.22692973  0.05836396  0.04068030    -0.02020
C124        C  0.19942825  0.11605139  0.03523444    -0.02020
C125        C  0.21930776  0.18007426  0.03358683     0.07910
C126        C  0.26908041  0.17752957  0.03434396    -0.02220
Br127      Br  0.30781721  0.22987465  0.01428219    -0.00760
Br128      Br  0.33028491  0.14194254  0.07096172    -0.00840
Br129      Br  0.13399005  0.10229136  0.03139835    -0.00800
Br130      Br  0.19123302  0.98471361  0.05304899    -0.00780
C131        C  0.25522721  0.32401291  0.05033401    -0.01900
C132        C  0.22523217  0.31067992  0.03000705     0.07780
C133        C  0.22973970  0.36052845  0.01136673    -0.02020
C134        C  0.25176398  0.42170563  0.01491688    -0.02020
C135        C  0.28394908  0.43066679  0.03418114     0.07910
C136        C  0.28924331  0.37411797  0.04967672    -0.02220
Br137      Br  0.34810174  0.34858976  0.06474722    -0.00760
Br138      Br  0.25548617  0.27606303  0.08052880    -0.00840
Br139      Br  0.23446156  0.49380711  0.99284276    -0.00800
Br140      Br  0.21408021  0.35015874  0.97896788    -0.00780
C141        C  0.33026306  0.48978648  0.08359724    -0.01900
C142        C  0.34701962  0.49377822  0.05889443     0.07780
C143        C  0.39694124  0.49443667  0.05679606    -0.02020
C144        C  0.42481508  0.50572700  0.07682743    -0.02020
C145        C  0.40931262  0.48549847  0.09950911     0.07910
C146        C  0.36147687  0.47933304  0.10314648    -0.02220
Br147      Br  0.33952245  0.46023496  0.13561318    -0.00760
Br148      Br  0.26700038  0.99396970  0.09337169    -0.00840
Br149      Br  0.48465058  0.54543581  0.07246776    -0.00800
Br150      Br  0.43295463  0.45177699  0.03246228    -0.00780
C151        C  0.99412735  0.07908850  0.95879401    -0.01900
C152        C  0.46302666  0.06660401  0.93917808     0.07780
C153        C  0.46813402  0.11057546  0.91869180    -0.02020
C154        C  0.50604550  0.15458914  0.91696799    -0.02020
C155        C  0.03015875  0.17666630  0.93797273     0.07910
C156        C  0.02907626  0.12811708  0.95723210    -0.02220
Br157      Br  0.08493677  0.10226251  0.97481238    -0.00760
Br158      Br  0.99431025  0.02406098  0.98772296    -0.00840
Br159      Br  0.52483434  0.17395462  0.88371809    -0.00800
Br160      Br  0.42332809  0.12286419  0.89237918    -0.00780
C161        C  0.01491695  0.43264834  0.94226919    -0.01900
C162        C  0.46409652  0.43485645  0.94299421     0.07780
C163        C  0.44637735  0.36937932  0.94176880    -0.02110
C164        C  0.47527947  0.31455969  0.93586334    -0.02020
C165        C  0.02428792  0.31087436  0.94108354     0.07910
C166        C  0.04175992  0.37405456  0.94660994    -0.02220
Br167      Br  0.10502393  0.38757140  0.95692124    -0.00760
Br168      Br  0.05404115  0.49721309  0.92688896    -0.00840
Br169      Br  0.44748829  0.26924467  0.90991398    -0.00800
Br170      Br  0.38208105  0.34623297  0.94197886    -0.00780
C171        C  0.34734746  0.45428904  0.99400926    -0.01900
C172        C  0.34305012  0.00610341  0.01096095     0.07780
C173        C  0.36945550  0.06238438  0.00297473    -0.02020
C174        C  0.38989416  0.06796260  0.97915626    -0.02020
C175        C  0.39303296  0.01308704  0.96319967     0.07910
C176        C  0.36034102  0.46441867  0.96997417    -0.02220
Br177      Br  0.30518106  0.44930844  0.95106626    -0.00760
Br178      Br  0.35755532  0.36531124  0.00263437    -0.00840
Br179      Br  0.40295680  0.15701733  0.96853792    -0.00800
Br180      Br  0.39753792  0.12115633  0.02503437    -0.00780
C181        C  0.00695333  0.08251701  0.55026391    -0.01900
C182        C  0.46984081  0.07299341  0.53371237     0.07780
C183        C  0.45365440  0.13287444  0.52279334    -0.02020
C184        C  0.48182684  0.18961804  0.52063632    -0.02020
C185        C  0.02381133  0.19451673  0.53476838     0.07910
C186        C  0.02550139  0.14479456  0.55386029    -0.02220
Br187      Br  0.04078969  0.15960698  0.58808670    -0.00760
Br188      Br  0.03217520  0.01527864  0.57119240    -0.00840
Br189      Br  0.44995657  0.26347319  0.50452707    -0.00800
Br190      Br  0.38874313  0.14731286  0.51830947    -0.00780
C191        C  0.02086133  0.43984396  0.52343847    -0.01900
C192        C  0.47334633  0.44294146  0.53277631     0.07780
C193        C  0.45737064  0.38126874  0.54091057    -0.02020
C194        C  0.48850208  0.32863695  0.54631023    -0.02020
C195        C  0.03306217  0.32201564  0.53482418     0.07910
C196        C  0.04962734  0.38199958  0.52492852    -0.02220
Br197      Br  0.11597587  0.39260696  0.51953465    -0.00760
Br198      Br  0.05213733  0.50983146  0.50711348    -0.00840
Br199      Br  0.46687836  0.27105099  0.57134075    -0.00800
Br200      Br  0.39208194  0.36084762  0.54292857    -0.00780
C201        C  0.22505009  0.05710083  0.44052213    -0.01900
C202        C  0.27381023  0.05682654  0.44568392     0.07780
C203        C  0.28926415  0.12019119  0.45042822    -0.02020
C204        C  0.26671333  0.17744096  0.44190435    -0.02020
C205        C  0.21838249  0.17937202  0.43772965     0.07910
C206        C  0.20158192  0.11485454  0.43257905    -0.02220
Br207      Br  0.17122745  0.09391462  0.40267759    -0.00760
Br208      Br  0.18164941  0.99259013  0.45221992    -0.00840
Br209      Br  0.30735108  0.23303521  0.42419922    -0.00800
Br210      Br  0.30922115  0.13330763  0.48202179    -0.00780
C211        C  0.25299315  0.32458098  0.45653940    -0.01900
C212        C  0.21752300  0.31365089  0.43860477     0.07780
C213        C  0.21539253  0.36754692  0.42094782    -0.02020
C214        C  0.24896287  0.41989484  0.42031522    -0.02020
C215        C  0.28251548  0.42894552  0.43914811     0.07910
C216        C  0.28797300  0.37278959  0.45433603    -0.02220
Br217      Br  0.34889202  0.34605468  0.46685015    -0.00760
Br218      Br  0.25943251  0.27738099  0.48618639    -0.00840
Br219      Br  0.24933217  0.47723610  0.39196959    -0.00800
Br220      Br  0.16280649  0.38579915  0.39983588    -0.00780
C221        C  0.36516061  0.07863527  0.41741249    -0.01900
C222        C  0.34342886  0.01539966  0.42005729     0.07780
C223        C  0.35421964  0.47208911  0.40047748    -0.02020
C224        C  0.37548440  0.99539603  0.37875291    -0.02020
C225        C  0.38939743  0.06023720  0.37612725     0.07910
C226        C  0.38217783  0.10244807  0.39507857    -0.02220
Br227      Br  0.40345136  0.19206829  0.39139337    -0.00760
Br228      Br  0.39188349  0.12631491  0.44335048    -0.00840
Br229      Br  0.38525348  0.43849691  0.35177857    -0.00800
Br230      Br  0.35158599  0.37832844  0.40310548    -0.00780
C231        C  0.32463970  0.98675387  0.49121877    -0.01900
C232        C  0.34326209  0.49092487  0.46731479     0.07780
C233        C  0.39304954  0.48831671  0.46702162    -0.02020
C234        C  0.41988367  0.50636582  0.48713480    -0.02020
C235        C  0.40329375  0.50277990  0.51162621     0.07910
C236        C  0.35328807  0.99046901  0.51262689    -0.02220
Br237      Br  0.31760915  0.97942268  0.54196001    -0.00760
Br238      Br  0.25854545  0.97350067  0.49540897    -0.00840
Br239      Br  0.47147601  0.55753635  0.47632897    -0.00800
Br240      Br  0.42988609  0.45023662  0.44143162    -0.00780
C241        C  0.10539569  0.28157886  0.57504280    -0.01900
C242        C  0.09717163  0.23972474  0.55475801     0.07780
C243        C  0.12338902  0.17827853  0.55543176    -0.02020
C244        C  0.15391743  0.16106034  0.57436934    -0.02020
C245        C  0.15810095  0.20096305  0.59414719     0.07910
C246        C  0.13545158  0.26156120  0.59427190    -0.02220
Br247      Br  0.14445828  0.31516191  0.62225398    -0.00760
Br248      Br  0.07583686  0.36406161  0.58041127    -0.00840
Br249      Br  0.19207346  0.08204950  0.57316970    -0.00800
Br250      Br  0.11852508  0.11193567  0.53168612    -0.00780
C251        C  0.40651261  0.47049327  0.58075909    -0.01900
C252        C  0.41278922  0.01524383  0.56038465     0.07780
C253        C  0.39330126  0.07722214  0.56569376    -0.02020
C254        C  0.35023652  0.08215222  0.57672116    -0.02020
C255        C  0.34031461  0.03678763  0.59513325     0.07910
C256        C  0.36863267  0.98016174  0.59720710    -0.02220
Br257      Br  0.35695535  0.41927665  0.62359567    -0.00760
Br258      Br  0.45558243  0.41748868  0.59430658    -0.00840
Br259      Br  0.31430529  0.16141969  0.57180345    -0.00800
Br260      Br  0.42915732  0.12594948  0.58766222    -0.00780
C261        C  0.08864520  0.31544267  0.90249003    -0.01900
C262        C  0.08837094  0.25434235  0.91503195     0.07780
C263        C  0.11775798  0.20502885  0.90443824    -0.02020
C264        C  0.14641347  0.22081514  0.88420363    -0.02020
C265        C  0.15343522  0.28678959  0.87756141     0.07910
C266        C  0.12711497  0.33449697  0.88915505    -0.02220
Br267      Br  0.13775288  0.42661473  0.88480195    -0.00760
Br268      Br  0.03555488  0.34100677  0.88427700    -0.00840
Br269      Br  0.17748752  0.15268337  0.86664264    -0.00800
Br270      Br  0.12703768  0.11976592  0.91848727    -0.00780
C271        C  0.32689968  0.49250217  0.89430012    -0.01900
C272        C  0.34455047  0.44414079  0.87890652     0.07780
C273        C  0.39247528  0.43047615  0.87925574    -0.02020
C274        C  0.42109699  0.46015227  0.89620480    -0.02020
C275        C  0.40189348  0.49404642  0.91623440     0.07910
C276        C  0.35577319  0.51948930  0.91211062    -0.02220
Br277      Br  0.33026066  0.09795035  0.92797094    -0.00760
Br278      Br  0.26211309  0.51952779  0.89255564    -0.00840
Br279      Br  0.48190858  0.47981225  0.88430918    -0.00800
Br280      Br  0.42069250  0.37861032  0.85418958    -0.00780
C281        C  0.23194120  0.25842370  0.72329464    -0.01900
C282        C  0.26985733  0.22644163  0.71228005     0.07780
C283        C  0.30914632  0.20846286  0.72650171    -0.02020
C284        C  0.30907877  0.21912073  0.75160555    -0.02020
C285        C  0.26951229  0.24628456  0.76285767     0.07910
C286        C  0.23076084  0.26572525  0.74842634    -0.02220
Br287      Br  0.17526836  0.30430317  0.76227002    -0.00760
Br288      Br  0.18203751  0.29589377  0.70374795    -0.00840
Br289      Br  0.36248280  0.19324900  0.77079241    -0.00800
Br290      Br  0.36296984  0.16711153  0.71228033    -0.00780
C291        C  0.26463791  0.45192888  0.71885617    -0.01900
C292        C  0.22897806  0.99531652  0.71104314     0.07780
C293        C  0.19720923  0.02077776  0.72807786    -0.02020
C294        C  0.20148183  0.00328410  0.75275836    -0.02020
C295        C  0.23925490  0.46298436  0.76072471     0.07910
C296        C  0.27155638  0.43922150  0.74354706    -0.02220
Br297      Br  0.32725826  0.39146160  0.75294110    -0.00760
Br298      Br  0.30408182  0.40939841  0.69542690    -0.00840
Br299      Br  0.15886023  0.03984234  0.77593281    -0.00800
Br300      Br  0.15026781  0.08421956  0.71834574    -0.00780
O301        O  0.20693076  0.91796723  0.79752853    -0.57870
C302        C  0.18623729  0.80830418  0.85904484     0.74760
O303        O  0.30469172  0.79569437  0.79752800    -0.59030
C304        C  0.24209621  0.93964028  0.78613309     0.74730
C305        C  0.31386486  0.91432941  0.86089853     0.77120
Cd306      Cd  0.25520366  0.85432963  0.82641496     1.37460
O307        O  0.17834837  0.85538781  0.84427426    -0.57870
O308        O  0.28121457  0.94506600  0.85016278    -0.56680
C309        C  0.27034067  0.76608802  0.78879853     0.77080
O310        O  0.32008040  0.85530479  0.85513180    -0.59050
O311        O  0.22592073  0.78093110  0.85792369    -0.57500
O312        O  0.28099890  0.93343589  0.79658001    -0.57490
O313        O  0.23441998  0.76262034  0.80190536    -0.56660
O314        O  0.17608154  0.62366200  0.62572026    -0.57870
C315        C  0.23361430  0.52634821  0.68694283     0.74760
O316        O  0.31842246  0.61151986  0.62549617    -0.59030
C317        C  0.18601765  0.67682920  0.61488599     0.74730
C318        C  0.26312789  0.69965938  0.68807987     0.77120
Cd319      Cd  0.24759530  0.61624217  0.64876976     1.37470
O320        O  0.19902608  0.54272437  0.67377425    -0.57870
O321        O  0.22330852  0.68103543  0.68176343    -0.56680
C322        C  0.30989947  0.55880106  0.61494941     0.77080
O323        O  0.29624845  0.68870559  0.67343046    -0.59050
O324        O  0.27348067  0.54303478  0.67953144    -0.57500
O325        O  0.22261973  0.70523980  0.62135509    -0.57490
O326        O  0.27351297  0.52881017  0.62132941    -0.56660
C327        C  0.31092458  0.99629790  0.44312408    -0.02540
C328        C  0.43973686  0.00738816  0.53457088    -0.02540
C329        C  0.43062172  0.50216917  0.94051077    -0.02540
C330        C  0.31312180  0.49715839  0.03606361    -0.02540
O331        O  0.45106395  0.69823551  0.29545323    -0.57870
C332        C  0.42213936  0.58042446  0.35678387     0.74760
O333        O  0.04251445  0.56277975  0.29909874    -0.59030
C334        C  0.98821932  0.71707445  0.28518033     0.74730
C335        C  0.05520996  0.68280492  0.36098840     0.77120
Cd336      Cd  0.99347747  0.63026780  0.32563399     1.37460
O337        O  0.41553143  0.63188652  0.34397920    -0.57870
O338        O  0.01791412  0.71235554  0.35488119    -0.56680
C339        C  0.50750606  0.54023612  0.28831583     0.77080
O340        O  0.06434987  0.62962811  0.35060177    -0.59050
O341        O  0.46061046  0.55052607  0.35405354    -0.57500
O342        O  0.02542626  0.70838953  0.29694380    -0.57490
O343        O  0.46872953  0.54609803  0.29881703    -0.56660
O344        O  0.05685294  0.95594575  0.17594496    -0.57870
C345        C  0.07455665  0.83875729  0.11322486     0.74760
O346        O  0.46067162  0.81378381  0.17066749    -0.59030
C347        C  0.52095463  0.96874922  0.18852435     0.74730
C348        C  0.44335405  0.95526283  0.11686933     0.77120
Cd349      Cd  0.01022859  0.89073586  0.14760451     1.37460
O350        O  0.08082277  0.89402015  0.12239655    -0.57870
O351        O  0.48061535  0.98317172  0.12267186    -0.56680
C352        C  0.99357377  0.79919171  0.18518209     0.77080
O353        O  0.43706170  0.89844790  0.12568033    -0.59050
O354        O  0.04004027  0.80642246  0.12083587    -0.57500
O355        O  0.48209368  0.95470805  0.17957814    -0.57490
O356        O  0.03401245  0.81693449  0.17910913    -0.56660
C357        C  0.05737024  0.74616522  0.93924320    -0.02540
C358        C  0.18898234  0.74801644  0.03036080    -0.02540
C359        C  0.18617287  0.74575332  0.43952598    -0.02540
C360        C  0.06139602  0.75348984  0.53299864    -0.02540
C361        C  0.11277108  0.78851655  0.46581690    -0.01900
C362        C  0.15569805  0.75162329  0.46424107     0.07780
C363        C  0.16516819  0.71879188  0.48670065    -0.02020
C364        C  0.14349747  0.74059233  0.50805450    -0.02020
C365        C  0.09364508  0.75279321  0.50817666     0.07910
C366        C  0.07924743  0.77227633  0.48407403    -0.02220
Br367      Br  0.02535813  0.74179806  0.46823376    -0.00760
Br368      Br  0.09149592  0.85269170  0.44266782    -0.00840
Br369      Br  0.18849688  0.77039417  0.53157433    -0.00800
Br370      Br  0.19832951  0.63843949  0.49081987    -0.00780
C371        C  0.07277854  0.74699441  0.98677336    -0.01900
C372        C  0.09174688  0.74478646  0.96276874     0.07780
C373        C  0.14213163  0.73800749  0.96241296    -0.02020
C374        C  0.16843103  0.72300976  0.98372117    -0.02020
C375        C  0.15258033  0.73961357  0.00728584     0.07910
C376        C  0.10138476  0.74197580  0.00821721    -0.02220
Br377      Br  0.06449247  0.72515174  0.03750301    -0.00760
Br378      Br  0.00553714  0.75381663  0.99117148    -0.00840
Br379      Br  0.22547440  0.67477320  0.97828260    -0.00800
Br380      Br  0.18335823  0.76481271  0.93609263    -0.00780
C381        C  0.15518085  0.73062384  0.07644942    -0.01900
C382        C  0.15839736  0.76656270  0.05340765     0.07780
C383        C  0.13218276  0.82749825  0.05203188    -0.02020
C384        C  0.10435417  0.84832955  0.07136304    -0.02020
C385        C  0.10437652  0.81470479  0.09345497     0.07910
C386        C  0.12973809  0.75664796  0.09611035    -0.02220
Br387      Br  0.13040493  0.71499174  0.12801367    -0.00760
Br388      Br  0.18642331  0.64949245  0.08552491    -0.00840
Br389      Br  0.05965495  0.91831710  0.06664362    -0.00800
Br390      Br  0.12493639  0.88090507  0.02272551    -0.00780
C391        C  0.12881714  0.73355162  0.37493857    -0.01900
C392        C  0.08539361  0.70668007  0.38042310     0.07780
C393        C  0.07466527  0.68982078  0.40436186    -0.02020
C394        C  0.10739653  0.69894746  0.42288671    -0.02020
C395        C  0.14985222  0.73523093  0.41842917     0.07910
C396        C  0.16198773  0.74306080  0.39335205    -0.02220
Br397      Br  0.22533388  0.75434394  0.38254799    -0.00760
Br398      Br  0.14334056  0.75439225  0.34159737    -0.00840
Br399      Br  0.10067794  0.63570721  0.44968996    -0.00800
Br400      Br  0.01798746  0.64228708  0.41089414    -0.00780
C401        C  0.02011373  0.72617784  0.21877252    -0.01900
C402        C  0.98609277  0.76955947  0.20941817     0.07780
C403        C  0.45233624  0.79632998  0.22512521    -0.02020
C404        C  0.45346744  0.78065979  0.25004830    -0.02020
C405        C  0.98912025  0.73989684  0.25957519     0.07910
C406        C  0.02299087  0.71354765  0.24372599    -0.02220
Br407      Br  0.07452809  0.66014971  0.25535656    -0.00760
Br408      Br  0.06253747  0.68255164  0.19707488    -0.00840
Br409      Br  0.40858975  0.82000321  0.27141847    -0.00800
Br410      Br  0.40639955  0.85854339  0.21320449    -0.00780
C411        C  0.48623325  0.53489231  0.22108806    -0.01900
C412        C  0.52261010  0.99329519  0.21340031     0.07780
C413        C  0.05319522  0.96455593  0.23074400    -0.02020
C414        C  0.04774671  0.97816048  0.25545556    -0.02020
C415        C  0.51037463  0.51772433  0.26311810     0.07910
C416        C  0.47876504  0.54436739  0.24578724    -0.02220
Br417      Br  0.42442632  0.59454376  0.25504862    -0.00760
Br418      Br  0.44690562  0.58052289  0.19767823    -0.00840
Br419      Br  0.08916189  0.93826700  0.27903166    -0.00800
Br420      Br  0.10034681  0.90230358  0.22132139    -0.00780
C421        C  0.29405886  0.62263706  0.04239771    -0.01900
C422        C  0.27723244  0.55901225  0.03952652     0.07780
C423        C  0.22681299  0.55841082  0.04014059    -0.02020
C424        C  0.19926262  0.61615032  0.03480564    -0.02020
C425        C  0.21908621  0.68021334  0.03324411     0.07910
C426        C  0.26885391  0.67769443  0.03398146    -0.02220
Br427      Br  0.30754508  0.73019813  0.01395437    -0.00760
Br428      Br  0.33004258  0.64226383  0.07061292    -0.00840
Br429      Br  0.13377549  0.60250380  0.03120130    -0.00800
Br430      Br  0.19117089  0.48480942  0.05255137    -0.00780
C431        C  0.25520102  0.82385644  0.05022701    -0.01900
C432        C  0.22498046  0.81088312  0.02994802     0.07780
C433        C  0.22927228  0.86114316  0.01144975    -0.02020
C434        C  0.25142884  0.92217481  0.01508484    -0.02020
C435        C  0.28391264  0.93067696  0.03424017     0.07910
C436        C  0.28930415  0.87385648  0.04957652    -0.02220
Br437      Br  0.34824742  0.84804088  0.06446774    -0.00760
Br438      Br  0.25548948  0.77587180  0.08040597    -0.00840
Br439      Br  0.23353534  0.99483339  0.99339911    -0.00800
Br440      Br  0.21247932  0.85200794  0.97917215    -0.00780
C441        C  0.33058948  0.98916142  0.08372024    -0.01900
C442        C  0.34718127  0.99333238  0.05898996     0.07780
C443        C  0.39708042  0.99386166  0.05679791    -0.02020
C444        C  0.42511659  0.00491309  0.07679117    -0.02020
C445        C  0.40973087  0.98465837  0.09949350     0.07910
C446        C  0.36191557  0.97855614  0.10320740    -0.02220
Br447      Br  0.34013921  0.95952538  0.13571829    -0.00760
Br448      Br  0.26657923  0.49440985  0.09310003    -0.00840
Br449      Br  0.48483493  0.04488415  0.07236394    -0.00800
Br450      Br  0.43279632  0.95133873  0.03231710    -0.00780
C451        C  0.99430700  0.57835799  0.95878005    -0.01900
C452        C  0.46365720  0.56501910  0.93905742     0.07780
C453        C  0.46931175  0.60798165  0.91830457    -0.02020
C454        C  0.50686666  0.65285455  0.91673722    -0.02020
C455        C  0.02967474  0.67640983  0.93797604     0.07910
C456        C  0.02874641  0.62805877  0.95729769    -0.02220
Br457      Br  0.08467433  0.60294466  0.97494531    -0.00760
Br458      Br  0.99470638  0.52353068  0.98778071    -0.00840
Br459      Br  0.52454270  0.67553610  0.88355942    -0.00800
Br460      Br  0.42523830  0.61822075  0.89150601    -0.00780
C461        C  0.01350154  0.93325890  0.94223448    -0.01900
C462        C  0.46279259  0.93608891  0.94271907     0.07780
C463        C  0.44456991  0.87101912  0.94115494    -0.02110
C464        C  0.47338804  0.81494927  0.93626258    -0.02020
C465        C  0.02255888  0.81120875  0.94144699     0.07910
C466        C  0.04007023  0.87454197  0.94679990    -0.02220
Br467      Br  0.10318135  0.88831206  0.95725612    -0.00760
Br468      Br  0.05271559  0.99716360  0.92660779    -0.00840
Br469      Br  0.44454135  0.76278630  0.91259171    -0.00800
Br470      Br  0.37957772  0.85165325  0.93951997    -0.00780
C471        C  0.34705508  0.95498912  0.99395483    -0.01900
C472        C  0.34321543  0.50575339  0.01085209     0.07780
C473        C  0.36969165  0.56185614  0.00279196    -0.02020
C474        C  0.39041705  0.56691477  0.97903367    -0.02020
C475        C  0.39379168  0.51165431  0.96323804     0.07910
C476        C  0.35964791  0.96572834  0.96991006    -0.02220
Br477      Br  0.30352023  0.95279405  0.95152374    -0.00760
Br478      Br  0.35715248  0.86569864  0.00209801    -0.00840
Br479      Br  0.40345373  0.65589059  0.96827636    -0.00800
Br480      Br  0.39733888  0.62127001  0.02476426    -0.00780
C481        C  0.00694582  0.58252719  0.55031560    -0.01900
C482        C  0.46982024  0.57303442  0.53376932     0.07780
C483        C  0.45365233  0.63291991  0.52285034    -0.02020
C484        C  0.48185832  0.68962624  0.52067913    -0.02020
C485        C  0.02385724  0.69450215  0.53480573     0.07910
C486        C  0.02554082  0.64478349  0.55389954    -0.02220
Br487      Br  0.04082874  0.65960231  0.58812475    -0.00760
Br488      Br  0.03211082  0.51526854  0.57125543    -0.00840
Br489      Br  0.45001642  0.76345937  0.50454381    -0.00800
Br490      Br  0.38873439  0.64741365  0.51838205    -0.00780
C491        C  0.02089856  0.93977734  0.52340847    -0.01900
C492        C  0.47338268  0.94288404  0.53274197     0.07780
C493        C  0.45742137  0.88123033  0.54090749    -0.02020
C494        C  0.48856344  0.82862706  0.54632895    -0.02020
C495        C  0.03312283  0.82199142  0.53484575     0.07910
C496        C  0.04968035  0.88195459  0.52493008    -0.02220
Br497      Br  0.11603446  0.89258460  0.51955897    -0.00760
Br498      Br  0.05215549  0.00972207  0.50705250    -0.00840
Br499      Br  0.46696142  0.77110336  0.57138341    -0.00800
Br500      Br  0.39213981  0.86076558  0.54292347    -0.00780
C501        C  0.22507037  0.55709391  0.44056256    -0.01900
C502        C  0.27383367  0.55682707  0.44571513     0.07780
C503        C  0.28929888  0.62020086  0.45044117    -0.02020
C504        C  0.26674183  0.67743970  0.44191196    -0.02020
C505        C  0.21840708  0.67935825  0.43774834     0.07910
C506        C  0.20160183  0.61483538  0.43261218    -0.02220
Br507      Br  0.17123369  0.59385091  0.40271871    -0.00760
Br508      Br  0.18167091  0.49257195  0.45225655    -0.00840
Br509      Br  0.30736947  0.73302853  0.42419252    -0.00800
Br510      Br  0.30931954  0.63338489  0.48202095    -0.00780
C511        C  0.25301322  0.82459235  0.45652790    -0.01900
C512        C  0.21752978  0.81363611  0.43860451     0.07780
C513        C  0.21537990  0.86751362  0.42093886    -0.02020
C514        C  0.24894321  0.91987298  0.42029187    -0.02020
C515        C  0.28251773  0.92894054  0.43911210     0.07910
C516        C  0.28799508  0.87279044  0.45430268    -0.02220
Br517      Br  0.34892743  0.84603867  0.46679255    -0.00760
Br518      Br  0.25946091  0.77745351  0.48618884    -0.00840
Br519      Br  0.24927791  0.97720475  0.39194393    -0.00800
Br520      Br  0.16278040  0.88572086  0.39983046    -0.00780
C521        C  0.36516832  0.57856928  0.41743058    -0.01900
C522        C  0.34344958  0.51533376  0.42009815     0.07780
C523        C  0.35419057  0.97220648  0.40042012    -0.02020
C524        C  0.37550776  0.49522487  0.37880356    -0.02020
C525        C  0.38941126  0.56005962  0.37615782     0.07910
C526        C  0.38217602  0.60232825  0.39508899    -0.02220
Br527      Br  0.40343291  0.69195014  0.39136986    -0.00760
Br528      Br  0.39192726  0.62629123  0.44334471    -0.00840
Br529      Br  0.38522769  0.93872841  0.35171126    -0.00800
Br530      Br  0.35154172  0.87843533  0.40302106    -0.00780
C531        C  0.32462371  0.48680169  0.49126409    -0.01900
C532        C  0.34326581  0.99091579  0.46726823     0.07780
C533        C  0.39305383  0.98829113  0.46696794    -0.02020
C534        C  0.41990239  0.00630523  0.48708128    -0.02020
C535        C  0.40332314  0.00269583  0.51157483     0.07910
C536        C  0.35325928  0.49056009  0.51267541    -0.02220
Br537      Br  0.31757258  0.47958044  0.54201082    -0.00760
Br538      Br  0.25853639  0.47351659  0.49545024    -0.00840
Br539      Br  0.47149848  0.05747073  0.47627500    -0.00800
Br540      Br  0.42986948  0.95024590  0.44136253    -0.00780
C541        C  0.10543612  0.78159784  0.57508217    -0.01900
C542        C  0.09722624  0.73972150  0.55480157     0.07780
C543        C  0.12344719  0.67827837  0.55549254    -0.02020
C544        C  0.15395514  0.66107718  0.57444496    -0.02020
C545        C  0.15812543  0.70100454  0.59421896     0.07910
C546        C  0.13546903  0.76160024  0.59432521    -0.02220
Br547      Br  0.14442678  0.81522612  0.62230500    -0.00760
Br548      Br  0.07590009  0.86411093  0.58042117    -0.00840
Br549      Br  0.19209174  0.58204723  0.57327320    -0.00800
Br550      Br  0.11861275  0.61191871  0.53175101    -0.00780
C551        C  0.40655157  0.97044223  0.58070182    -0.01900
C552        C  0.41275412  0.51529550  0.56044082     0.07780
C553        C  0.39327471  0.57728139  0.56575218    -0.02020
C554        C  0.35023061  0.58224194  0.57680226    -0.02020
C555        C  0.34033503  0.53691584  0.59523006     0.07910
C556        C  0.36862967  0.48025964  0.59728657    -0.02220
Br557      Br  0.35695370  0.91918233  0.62351733    -0.00760
Br558      Br  0.45566141  0.91759694  0.59429473    -0.00840
Br559      Br  0.31429451  0.66150193  0.57188021    -0.00800
Br560      Br  0.42916932  0.62604069  0.58769265    -0.00780
C561        C  0.08574789  0.81572049  0.90203076    -0.01900
C562        C  0.08689900  0.75530481  0.91509160     0.07780
C563        C  0.11702198  0.70643465  0.90471123    -0.02020
C564        C  0.14551342  0.72222787  0.88442038    -0.02020
C565        C  0.15132651  0.78806110  0.87725680     0.07910
C566        C  0.12336471  0.83538308  0.88807420    -0.02220
Br567      Br  0.13192813  0.92766971  0.88268319    -0.00760
Br568      Br  0.03036900  0.84268402  0.88588558    -0.00840
Br569      Br  0.17798036  0.65422606  0.86740221    -0.00800
Br570      Br  0.12727235  0.62161911  0.91900908    -0.00780
C571        C  0.32586259  0.99387458  0.89447960    -0.01900
C572        C  0.34379652  0.94610511  0.87892081     0.07780
C573        C  0.39189574  0.93366387  0.87897866    -0.02020
C574        C  0.42049872  0.96393486  0.89579900    -0.02020
C575        C  0.40117253  0.99683662  0.91604287     0.07910
C576        C  0.35471675  0.02127577  0.91220689    -0.02220
Br577      Br  0.33165764  0.59643835  0.92775180    -0.00760
Br578      Br  0.26076694  0.01942973  0.89306237    -0.00840
Br579      Br  0.48086238  0.98533108  0.88357159    -0.00800
Br580      Br  0.42016988  0.88231979  0.85380524    -0.00780
C581        C  0.23165491  0.75834608  0.72355058    -0.01900
C582        C  0.26962666  0.72645843  0.71254425     0.07780
C583        C  0.30894059  0.70866893  0.72677973    -0.02020
C584        C  0.30885758  0.71944336  0.75188169    -0.02020
C585        C  0.26924809  0.74652264  0.76312775     0.07910
C586        C  0.23047060  0.76576632  0.74868138    -0.02220
Br587      Br  0.17495060  0.80429987  0.76250807    -0.00760
Br588      Br  0.18169514  0.79560348  0.70399049    -0.00840
Br589      Br  0.36232503  0.69390443  0.77107268    -0.00800
Br590      Br  0.36283642  0.66746082  0.71257328    -0.00780
C591        C  0.26445957  0.95209602  0.71887234    -0.01900
C592        C  0.22911454  0.49514571  0.71107892     0.07780
C593        C  0.19736779  0.52047907  0.72815111    -0.02020
C594        C  0.20171160  0.50286955  0.75281854    -0.02020
C595        C  0.23897229  0.96337391  0.76071616     0.07910
C596        C  0.27130179  0.93948443  0.74357642    -0.02220
Br597      Br  0.32693917  0.89168094  0.75304113    -0.00760
Br598      Br  0.30394014  0.90941517  0.69549664    -0.00840
Br599      Br  0.15911655  0.53923751  0.77604635    -0.00800
Br600      Br  0.15036111  0.58390090  0.71848911    -0.00780
O601        O  0.70736648  0.41724812  0.79751999    -0.57870
C602        C  0.68777500  0.30693304  0.85910843     0.74760
O603        O  0.80511998  0.29499807  0.79729241    -0.59030
C604        C  0.74247334  0.43911638  0.78612093     0.74730
C605        C  0.81460275  0.41283241  0.86078410     0.77120
Cd606      Cd  0.75586400  0.35347753  0.82625452     1.37460
O607        O  0.67969604  0.35471724  0.84467181    -0.57870
O608        O  0.78216783  0.44393654  0.85001760    -0.56680
C609        C  0.77065050  0.26570367  0.78853069     0.77080
O610        O  0.82059166  0.35381243  0.85496748    -0.59050
O611        O  0.72714019  0.27890099  0.85746464    -0.57500
O612        O  0.78142302  0.43294893  0.79652765    -0.57490
O613        O  0.73469695  0.26237422  0.80161835    -0.56660
O614        O  0.67604661  0.12356038  0.62562031    -0.57870
C615        C  0.73352502  0.02637026  0.68688306     0.74760
O616        O  0.81838715  0.11131908  0.62540443    -0.59030
C617        C  0.68599491  0.17674168  0.61479951     0.74730
C618        C  0.76326279  0.19961724  0.68783978     0.77120
Cd619      Cd  0.74756401  0.11605822  0.64864057     1.37470
O620        O  0.69896027  0.04269486  0.67369080    -0.57870
O621        O  0.72340101  0.18106081  0.68156644    -0.56680
C622        C  0.80985390  0.05863710  0.61483929     0.77080
O623        O  0.79634185  0.18853027  0.67318200    -0.59050
O624        O  0.77340461  0.04298673  0.67947011    -0.57500
O625        O  0.72261869  0.20510801  0.62125972    -0.57490
O626        O  0.77344466  0.02865762  0.62119099    -0.56660
C627        C  0.81093550  0.49628553  0.44316504    -0.02540
C628        C  0.93970413  0.50744654  0.53462353    -0.02540
C629        C  0.92978797  0.00393361  0.94041533    -0.02540
C630        C  0.81314425  0.99708023  0.03622102    -0.02540
O631        O  0.95104836  0.19846546  0.29534102    -0.57870
C632        C  0.92210748  0.08066203  0.35674658     0.74760
O633        O  0.54249278  0.06297130  0.29909438    -0.59030
C634        C  0.48820445  0.21719260  0.28503810     0.74730
C635        C  0.55520498  0.18304836  0.36092990     0.77120
Cd636      Cd  0.49343727  0.13055159  0.32557390     1.37460
O637        O  0.91549787  0.13216675  0.34396396    -0.57870
O638        O  0.51792934  0.21264757  0.35481890    -0.56680
C639        C  0.00749553  0.04034906  0.28832562     0.77080
O640        O  0.56431473  0.12987065  0.35053937    -0.59050
O641        O  0.96056737  0.05075944  0.35398617    -0.57500
O642        O  0.52542163  0.20844683  0.29678814    -0.57490
O643        O  0.96870894  0.04624675  0.29881506    -0.56660
O644        O  0.55665636  0.45635435  0.17584239    -0.57870
C645        C  0.57421949  0.33970892  0.11297290     0.74760
O646        O  0.96054231  0.31413358  0.17054117    -0.59030
C647        C  0.02078954  0.46909684  0.18845452     0.74730
C648        C  0.94288727  0.45603648  0.11689669     0.77120
Cd649      Cd  0.50993469  0.39132305  0.14748044     1.37460
O650        O  0.58046822  0.39493287  0.12217795    -0.57870
O651        O  0.98013648  0.48393193  0.12272781    -0.56680
C652        C  0.49348497  0.29955085  0.18503275     0.77080
O653        O  0.93663079  0.39914265  0.12564288    -0.59050
O654        O  0.53969387  0.30735069  0.12055949    -0.57500
O655        O  0.98190619  0.45510300  0.17952368    -0.57490
O656        O  0.53389445  0.31736776  0.17893657    -0.56660
C657        C  0.55866957  0.24564920  0.93911471    -0.02540
C658        C  0.68925615  0.24782599  0.03049974    -0.02540
C659        C  0.68615403  0.24577803  0.43950599    -0.02540
C660        C  0.56133742  0.25351532  0.53296341    -0.02540
C661        C  0.61271931  0.28852948  0.46578079    -0.01900
C662        C  0.65565408  0.25164621  0.46421228     0.07780
C663        C  0.66511638  0.21882331  0.48667231    -0.02020
C664        C  0.64344423  0.24063997  0.50802292    -0.02020
C665        C  0.59358967  0.25283477  0.50814239     0.07910
C666        C  0.57919304  0.27229695  0.48403814    -0.02220
Br667      Br  0.52529445  0.24182010  0.46820515    -0.00760
Br668      Br  0.59143982  0.35268766  0.44262601    -0.00840
Br669      Br  0.68843908  0.27045083  0.53154466    -0.00800
Br670      Br  0.69824097  0.13843909  0.49078692    -0.00780
C671        C  0.57355831  0.24669780  0.98666152    -0.01900
C672        C  0.59278007  0.24405996  0.96272060     0.07780
C673        C  0.64311564  0.23651952  0.96250672    -0.02020
C674        C  0.66914161  0.22183018  0.98392129    -0.02020
C675        C  0.65309249  0.23907401  0.00737635     0.07910
C676        C  0.60191513  0.24164019  0.00817868    -0.02220
Br677      Br  0.56473565  0.22514833  0.03739019    -0.00760
Br678      Br  0.50631423  0.25430890  0.99089489    -0.00840
Br679      Br  0.72604931  0.17293092  0.97879600    -0.00800
Br680      Br  0.68479909  0.26127722  0.93615063    -0.00780
C681        C  0.65506591  0.23110810  0.07653261    -0.01900
C682        C  0.65848995  0.26674137  0.05343867     0.07780
C683        C  0.63235729  0.32773043  0.05189645    -0.02020
C684        C  0.60451277  0.34901090  0.07116121    -0.02020
C685        C  0.60421176  0.31552390  0.09328765     0.07910
C686        C  0.62946565  0.25740855  0.09608280    -0.02220
Br687      Br  0.62983787  0.21609984  0.12805094    -0.00760
Br688      Br  0.68615991  0.15001521  0.08582422    -0.00840
Br689      Br  0.56041708  0.41970213  0.06632866    -0.00800
Br690      Br  0.62532240  0.38060327  0.02243417    -0.00780
C691        C  0.62883117  0.23370776  0.37490460    -0.01900
C692        C  0.58539467  0.20685570  0.38037597     0.07780
C693        C  0.57466312  0.18992616  0.40430862    -0.02020
C694        C  0.60738687  0.19900870  0.42284095    -0.02020
C695        C  0.64984968  0.23528676  0.41839868     0.07910
C696        C  0.66199948  0.24315274  0.39332522    -0.02220
Br697      Br  0.72535479  0.25442282  0.38253478    -0.00760
Br698      Br  0.64337500  0.25461354  0.34157142    -0.00840
Br699      Br  0.60063718  0.13575346  0.44963682    -0.00800
Br700      Br  0.51798945  0.14236612  0.41081985    -0.00780
C701        C  0.52008292  0.22646154  0.21861017    -0.01900
C702        C  0.48606300  0.26987891  0.20927383     0.07780
C703        C  0.95231789  0.29660557  0.22499829    -0.02020
C704        C  0.95345228  0.28085860  0.24991655    -0.02020
C705        C  0.48908199  0.24002326  0.25942658     0.07910
C706        C  0.52293525  0.21369693  0.24356019    -0.02220
Br707      Br  0.57440346  0.16012560  0.25516536    -0.00760
Br708      Br  0.56252955  0.18295564  0.19689288    -0.00840
Br709      Br  0.90860798  0.32020351  0.27130399    -0.00800
Br710      Br  0.90639135  0.35887804  0.21310859    -0.00780
C711        C  0.98632491  0.03468619  0.22110070    -0.01900
C712        C  0.02250131  0.49353424  0.21334513     0.07780
C713        C  0.55311820  0.46472095  0.23065752    -0.02020
C714        C  0.54771572  0.47821829  0.25538151    -0.02020
C715        C  0.01039136  0.01770056  0.26314916     0.07910
C716        C  0.97881061  0.04426709  0.24578976    -0.02220
Br717      Br  0.92446272  0.09449907  0.25499981    -0.00760
Br718      Br  0.94704665  0.08022863  0.19764735    -0.00840
Br719      Br  0.58916892  0.43821065  0.27891343    -0.00800
Br720      Br  0.60024628  0.40250626  0.22117247    -0.00780
C721        C  0.79425422  0.12245171  0.04275303    -0.01900
C722        C  0.77733875  0.05889106  0.03990464     0.07780
C723        C  0.72692961  0.05836400  0.04068024    -0.02020
C724        C  0.69942810  0.11605141  0.03523439    -0.02020
C725        C  0.71930761  0.18007429  0.03358677     0.07910
C726        C  0.76908026  0.17752960  0.03434388    -0.02220
Br727      Br  0.80781701  0.22987459  0.01428204    -0.00760
Br728      Br  0.83028473  0.14194256  0.07096165    -0.00840
Br729      Br  0.63398989  0.10229140  0.03139834    -0.00800
Br730      Br  0.69123294  0.98471363  0.05304895    -0.00780
C731        C  0.75522710  0.32401288  0.05033394    -0.01900
C732        C  0.72523203  0.31067992  0.03000699     0.07780
C733        C  0.72973958  0.36052844  0.01136667    -0.02020
C734        C  0.75176391  0.42170559  0.01491681    -0.02020
C735        C  0.78394901  0.43066673  0.03418107     0.07910
C736        C  0.78924322  0.37411791  0.04967666    -0.02220
Br737      Br  0.84810163  0.34858966  0.06474716    -0.00760
Br738      Br  0.75548604  0.27606305  0.08052875    -0.00840
Br739      Br  0.73446164  0.49380706  0.99284265    -0.00800
Br740      Br  0.71408005  0.35015874  0.97896781    -0.00780
C741        C  0.83026302  0.48978641  0.08359718    -0.01900
C742        C  0.84701957  0.49377811  0.05889436     0.07780
C743        C  0.89694119  0.49443651  0.05679600    -0.02020
C744        C  0.92481505  0.50572687  0.07682735    -0.02020
C745        C  0.90931259  0.48549840  0.09950904     0.07910
C746        C  0.86147683  0.47933300  0.10314642    -0.02220
Br747      Br  0.83952242  0.46023501  0.13561312    -0.00760
Br748      Br  0.76700035  0.99396981  0.09337159    -0.00840
Br749      Br  0.98465056  0.54543562  0.07246766    -0.00800
Br750      Br  0.93295455  0.45177668  0.03246224    -0.00780
C751        C  0.49412728  0.07908844  0.95879404    -0.01900
C752        C  0.96302677  0.06660418  0.93917802     0.07780
C753        C  0.96813428  0.11057555  0.91869173    -0.02020
C754        C  0.00604586  0.15458904  0.91696794    -0.02020
C755        C  0.53015845  0.17666643  0.93797276     0.07910
C756        C  0.52907611  0.12811714  0.95723211    -0.02220
Br757      Br  0.58493670  0.10226266  0.97481234    -0.00760
Br758      Br  0.49431033  0.02406092  0.98772300    -0.00840
Br759      Br  0.02483490  0.17395419  0.88371806    -0.00800
Br760      Br  0.92332852  0.12286440  0.89237901    -0.00780
C761        C  0.51491668  0.43264858  0.94226922    -0.01900
C762        C  0.96409676  0.43485611  0.94299423     0.07780
C763        C  0.94637763  0.36937896  0.94176888    -0.02110
C764        C  0.97527977  0.31455940  0.93586337    -0.02020
C765        C  0.52428761  0.31087456  0.94108358     0.07910
C766        C  0.54175961  0.37405476  0.94661000    -0.02220
Br767      Br  0.60502361  0.38757157  0.95692132    -0.00760
Br768      Br  0.55404088  0.49721323  0.92688898    -0.00840
Br769      Br  0.94748854  0.26924448  0.90991402    -0.00800
Br770      Br  0.88208135  0.34623252  0.94197904    -0.00780
C771        C  0.84734738  0.45428891  0.99400919    -0.01900
C772        C  0.84304997  0.00610358  0.01096081     0.07780
C773        C  0.86945543  0.06238455  0.00297464    -0.02020
C774        C  0.88989415  0.06796286  0.97915618    -0.02020
C775        C  0.89303291  0.01308740  0.96319954     0.07910
C776        C  0.86034103  0.46441850  0.96997411    -0.02220
Br777      Br  0.80518121  0.44930827  0.95106609    -0.00760
Br778      Br  0.85755518  0.36531112  0.00263432    -0.00840
Br779      Br  0.90295698  0.15701758  0.96853790    -0.00800
Br780      Br  0.89753782  0.12115639  0.02503433    -0.00780
C781        C  0.50695332  0.08251701  0.55026392    -0.01900
C782        C  0.96984083  0.07299342  0.53371236     0.07780
C783        C  0.95365442  0.13287446  0.52279334    -0.02020
C784        C  0.98182685  0.18961806  0.52063632    -0.02020
C785        C  0.52381132  0.19451673  0.53476838     0.07910
C786        C  0.52550138  0.14479455  0.55386029    -0.02220
Br787      Br  0.54078968  0.15960699  0.58808670    -0.00760
Br788      Br  0.53217519  0.01527863  0.57119241    -0.00840
Br789      Br  0.94995659  0.26347322  0.50452708    -0.00800
Br790      Br  0.88874315  0.14731287  0.51830945    -0.00780
C791        C  0.52086131  0.43984395  0.52343848    -0.01900
C792        C  0.97334635  0.44294147  0.53277630     0.07780
C793        C  0.95737066  0.38126875  0.54091057    -0.02020
C794        C  0.98850211  0.32863696  0.54631024    -0.02020
C795        C  0.53306215  0.32201563  0.53482418     0.07910
C796        C  0.54962732  0.38199958  0.52492853    -0.02220
Br797      Br  0.61597585  0.39260696  0.51953467    -0.00760
Br798      Br  0.55213732  0.50983145  0.50711349    -0.00840
Br799      Br  0.96687840  0.27105102  0.57134076    -0.00800
Br800      Br  0.89208196  0.36084762  0.54292858    -0.00780
C801        C  0.72505009  0.05710084  0.44052213    -0.01900
C802        C  0.77381023  0.05682655  0.44568391     0.07780
C803        C  0.78926416  0.12019119  0.45042822    -0.02020
C804        C  0.76671334  0.17744097  0.44190435    -0.02020
C805        C  0.71838249  0.17937203  0.43772965     0.07910
C806        C  0.70158192  0.11485456  0.43257905    -0.02220
Br807      Br  0.67122746  0.09391464  0.40267759    -0.00760
Br808      Br  0.68164941  0.99259015  0.45221992    -0.00840
Br809      Br  0.80735108  0.23303522  0.42419921    -0.00800
Br810      Br  0.80922115  0.13330763  0.48202178    -0.00780
C811        C  0.75299316  0.32458099  0.45653940    -0.01900
C812        C  0.71752301  0.31365091  0.43860478     0.07780
C813        C  0.71539254  0.36754693  0.42094783    -0.02020
C814        C  0.74896288  0.41989484  0.42031522    -0.02020
C815        C  0.78251550  0.42894553  0.43914811     0.07910
C816        C  0.78797301  0.37278960  0.45433603    -0.02220
Br817      Br  0.84889203  0.34605469  0.46685015    -0.00760
Br818      Br  0.75943252  0.27738100  0.48618639    -0.00840
Br819      Br  0.74933219  0.47723610  0.39196959    -0.00800
Br820      Br  0.66280650  0.38579916  0.39983589    -0.00780
C821        C  0.86516061  0.07863528  0.41741248    -0.01900
C822        C  0.84342886  0.01539967  0.42005728     0.07780
C823        C  0.85421965  0.47208911  0.40047747    -0.02020
C824        C  0.87548440  0.99539604  0.37875290    -0.02020
C825        C  0.88939743  0.06023720  0.37612724     0.07910
C826        C  0.88217783  0.10244808  0.39507856    -0.02220
Br827      Br  0.90345136  0.19206830  0.39139336    -0.00760
Br828      Br  0.89188350  0.12631492  0.44335048    -0.00840
Br829      Br  0.88525350  0.43849690  0.35177856    -0.00800
Br830      Br  0.85158600  0.37832845  0.40310548    -0.00780
C831        C  0.82463970  0.98675388  0.49121877    -0.01900
C832        C  0.84326210  0.49092488  0.46731479     0.07780
C833        C  0.89304956  0.48831672  0.46702161    -0.02020
C834        C  0.91988369  0.50636583  0.48713480    -0.02020
C835        C  0.90329377  0.50277990  0.51162621     0.07910
C836        C  0.85328808  0.99046901  0.51262689    -0.02220
Br837      Br  0.81760916  0.97942266  0.54196001    -0.00760
Br838      Br  0.75854546  0.97350068  0.49540897    -0.00840
Br839      Br  0.97147602  0.55753637  0.47632897    -0.00800
Br840      Br  0.92988611  0.45023664  0.44143162    -0.00780
C841        C  0.60539568  0.28157887  0.57504280    -0.01900
C842        C  0.59717161  0.23972475  0.55475801     0.07780
C843        C  0.62338900  0.17827854  0.55543176    -0.02020
C844        C  0.65391743  0.16106035  0.57436934    -0.02020
C845        C  0.65810095  0.20096307  0.59414718     0.07910
C846        C  0.63545158  0.26156121  0.59427190    -0.02220
Br847      Br  0.64445829  0.31516193  0.62225397    -0.00760
Br848      Br  0.57583681  0.36406159  0.58041128    -0.00840
Br849      Br  0.69207346  0.08204951  0.57316970    -0.00800
Br850      Br  0.61852507  0.11193567  0.53168611    -0.00780
C851        C  0.90651264  0.47049327  0.58075909    -0.01900
C852        C  0.91278923  0.01524384  0.56038464     0.07780
C853        C  0.89330126  0.07722216  0.56569374    -0.02020
C854        C  0.85023652  0.08215223  0.57672114    -0.02020
C855        C  0.84031462  0.03678765  0.59513324     0.07910
C856        C  0.86863268  0.98016177  0.59720710    -0.02220
Br857      Br  0.85695539  0.41927663  0.62359567    -0.00760
Br858      Br  0.95558247  0.41748871  0.59430658    -0.00840
Br859      Br  0.81430527  0.16141968  0.57180342    -0.00800
Br860      Br  0.92915731  0.12594953  0.58766220    -0.00780
C861        C  0.58864499  0.31544303  0.90249008    -0.01900
C862        C  0.58837059  0.25434260  0.91503194     0.07780
C863        C  0.61775756  0.20502908  0.90443818    -0.02020
C864        C  0.64641300  0.22081536  0.88420356    -0.02020
C865        C  0.65343488  0.28678979  0.87756138     0.07910
C866        C  0.62711476  0.33449722  0.88915507    -0.02220
Br867      Br  0.63775307  0.42661492  0.88480213    -0.00760
Br868      Br  0.53555459  0.34100805  0.88427728    -0.00840
Br869      Br  0.67748681  0.15268355  0.86664248    -0.00800
Br870      Br  0.62703730  0.11976614  0.91848719    -0.00780
C871        C  0.82689990  0.49250223  0.89430002    -0.01900
C872        C  0.84455048  0.44414049  0.87890651     0.07780
C873        C  0.89247520  0.43047530  0.87925582    -0.02020
C874        C  0.92109701  0.46015126  0.89620486    -0.02020
C875        C  0.90189363  0.49404585  0.91623440     0.07910
C876        C  0.85577348  0.51948917  0.91211053    -0.02220
Br877      Br  0.83026102  0.09795116  0.92797069    -0.00760
Br878      Br  0.76211348  0.51952866  0.89255539    -0.00840
Br879      Br  0.98190874  0.47981049  0.88430930    -0.00800
Br880      Br  0.92069226  0.37860891  0.85418976    -0.00780
C881        C  0.73194115  0.25842376  0.72329461    -0.01900
C882        C  0.76985729  0.22644165  0.71228005     0.07780
C883        C  0.80914625  0.20846284  0.72650172    -0.02020
C884        C  0.80907866  0.21912071  0.75160556    -0.02020
C885        C  0.76951217  0.24628457  0.76285767     0.07910
C886        C  0.73076075  0.26572530  0.74842631    -0.02220
Br887      Br  0.67526826  0.30430327  0.76226996    -0.00760
Br888      Br  0.68203753  0.29589389  0.70374790    -0.00840
Br889      Br  0.86248264  0.19324894  0.77079245    -0.00800
Br890      Br  0.86296977  0.16711146  0.71228037    -0.00780
C891        C  0.76463789  0.45192888  0.71885618    -0.01900
C892        C  0.72897808  0.99531648  0.71104309     0.07780
C893        C  0.69720927  0.02077771  0.72807783    -0.02020
C894        C  0.70148189  0.00328403  0.75275833    -0.02020
C895        C  0.73925482  0.46298437  0.76072471     0.07910
C896        C  0.77155633  0.43922151  0.74354707    -0.02220
Br897      Br  0.82725819  0.39146159  0.75294113    -0.00760
Br898      Br  0.80408183  0.40939841  0.69542692    -0.00840
Br899      Br  0.65886032  0.03984226  0.77593279    -0.00800
Br900      Br  0.65026785  0.08421954  0.71834573    -0.00780
O901        O  0.70693091  0.91796717  0.79752850    -0.57870
C902        C  0.68623777  0.80830407  0.85904485     0.74760
O903        O  0.80469188  0.79569435  0.79752795    -0.59030
C904        C  0.74209633  0.93964021  0.78613303     0.74730
C905        C  0.81386504  0.91432974  0.86089843     0.77120
Cd906      Cd  0.75520389  0.85432967  0.82641491     1.37460
O907        O  0.67834881  0.85538794  0.84427437    -0.57870
O908        O  0.78121471  0.94506621  0.85016267    -0.56680
C909        C  0.77034079  0.76608807  0.78879848     0.77080
O910        O  0.82008063  0.85530510  0.85513174    -0.59050
O911        O  0.72592111  0.78093076  0.85792355    -0.57500
O912        O  0.78099905  0.93343584  0.79657993    -0.57490
O913        O  0.73442011  0.76262047  0.80190531    -0.56660
O914        O  0.67608154  0.62366196  0.62572025    -0.57870
C915        C  0.73361430  0.52634818  0.68694283     0.74760
O916        O  0.81842247  0.61151981  0.62549616    -0.59030
C917        C  0.68601764  0.67682916  0.61488599     0.74730
C918        C  0.76312792  0.69965934  0.68807983     0.77120
Cd919      Cd  0.74759530  0.61624212  0.64876975     1.37470
O920        O  0.69902608  0.54272432  0.67377424    -0.57870
O921        O  0.72330855  0.68103538  0.68176341    -0.56680
C922        C  0.80989948  0.55880101  0.61494940     0.77080
O923        O  0.79624847  0.68870555  0.67343042    -0.59050
O924        O  0.77348067  0.54303475  0.67953144    -0.57500
O925        O  0.72261973  0.70523976  0.62135509    -0.57490
O926        O  0.77351297  0.52881012  0.62132940    -0.56660
C927        C  0.81092458  0.99629790  0.44312408    -0.02540
C928        C  0.93973687  0.00738817  0.53457087    -0.02540
C929        C  0.93062189  0.50216873  0.94051075    -0.02540
C930        C  0.81312176  0.49715830  0.03606354    -0.02540
O931        O  0.95106392  0.69823554  0.29545322    -0.57870
C932        C  0.92213936  0.58042447  0.35678386     0.74760
O933        O  0.54251447  0.56277972  0.29909878    -0.59030
C934        C  0.48821936  0.71707441  0.28518035     0.74730
C935        C  0.55520996  0.68280491  0.36098841     0.77120
Cd936      Cd  0.49347748  0.63026779  0.32563401     1.37460
O937        O  0.91553142  0.63188653  0.34397919    -0.57870
O938        O  0.51791412  0.71235554  0.35488120    -0.56680
C939        C  0.00750603  0.54023616  0.28831580     0.77080
O940        O  0.56434987  0.62962809  0.35060179    -0.59050
O941        O  0.96061045  0.55052608  0.35405352    -0.57500
O942        O  0.52542630  0.70838949  0.29694382    -0.57490
O943        O  0.96872951  0.54609807  0.29881700    -0.56660
O944        O  0.55685306  0.95594564  0.17594501    -0.57870
C945        C  0.57455669  0.83875739  0.11322482     0.74760
O946        O  0.96067149  0.81378393  0.17066749    -0.59030
C947        C  0.02095451  0.96874931  0.18852430     0.74730
C948        C  0.94335402  0.95526275  0.11686919     0.77120
Cd949      Cd  0.51022869  0.89073582  0.14760455     1.37460
O950        O  0.58082283  0.89402021  0.12239654    -0.57870
O951        O  0.98061532  0.98317166  0.12267172    -0.56680
C952        C  0.49357388  0.79919162  0.18518210     0.77080
O953        O  0.93706165  0.89844788  0.12568024    -0.59050
O954        O  0.54004031  0.80642256  0.12083582    -0.57500
O955        O  0.98209356  0.95470813  0.17957810    -0.57490
O956        O  0.53401257  0.81693443  0.17910915    -0.56660
C957        C  0.55737046  0.74616540  0.93924309    -0.02540
C958        C  0.68898235  0.74801643  0.03036075    -0.02540
C959        C  0.68617287  0.74575333  0.43952599    -0.02540
C960        C  0.56139601  0.75348983  0.53299864    -0.02540
C961        C  0.61277106  0.78851653  0.46581690    -0.01900
C962        C  0.65569805  0.75162330  0.46424107     0.07780
C963        C  0.66516820  0.71879190  0.48670066    -0.02020
C964        C  0.64349747  0.74059234  0.50805450    -0.02020
C965        C  0.59364508  0.75279321  0.50817667     0.07910
C966        C  0.57924742  0.77227630  0.48407404    -0.02220
Br967      Br  0.52535814  0.74179794  0.46823378    -0.00760
Br968      Br  0.59149588  0.85269164  0.44266782    -0.00840
Br969      Br  0.68849688  0.77039418  0.53157434    -0.00800
Br970      Br  0.69832953  0.63843952  0.49081988    -0.00780
C971        C  0.57277865  0.74699461  0.98677327    -0.01900
C972        C  0.59174705  0.74478658  0.96276866     0.07780
C973        C  0.64213178  0.73800733  0.96241291    -0.02020
C974        C  0.66843112  0.72300961  0.98372114    -0.02020
C975        C  0.65258037  0.73961355  0.00728579     0.07910
C976        C  0.60138482  0.74197591  0.00821713    -0.02220
Br977      Br  0.56449246  0.72515192  0.03750291    -0.00760
Br978      Br  0.50553726  0.75381711  0.99117135    -0.00840
Br979      Br  0.72547441  0.67477279  0.97828264    -0.00800
Br980      Br  0.68335852  0.76481188  0.93609256    -0.00780
C981        C  0.65518085  0.73062390  0.07644936    -0.01900
C982        C  0.65839737  0.76656274  0.05340760     0.07780
C983        C  0.63218281  0.82749833  0.05203183    -0.02020
C984        C  0.60435428  0.84832972  0.07136300    -0.02020
C985        C  0.60437656  0.81470491  0.09345492     0.07910
C986        C  0.62973807  0.75664802  0.09611029    -0.02220
Br987      Br  0.63040485  0.71499175  0.12801360    -0.00760
Br988      Br  0.68642333  0.64949253  0.08552487    -0.00840
Br989      Br  0.55965530  0.91831759  0.06664362    -0.00800
Br990      Br  0.62493643  0.88090510  0.02272543    -0.00780
C991        C  0.62881713  0.73355165  0.37493858    -0.01900
C992        C  0.58539360  0.70668007  0.38042311     0.07780
C993        C  0.57466528  0.68982075  0.40436187    -0.02020
C994        C  0.60739655  0.69894743  0.42288672    -0.02020
C995        C  0.64985222  0.73523093  0.41842918     0.07910
C996        C  0.66198773  0.74306083  0.39335206    -0.02220
Br997      Br  0.72533387  0.75434399  0.38254799    -0.00760
Br998      Br  0.64334052  0.75439231  0.34159738    -0.00840
Br999      Br  0.60067798  0.63570717  0.44968997    -0.00800
Br1000     Br  0.51798748  0.64228701  0.41089416    -0.00780
C1001       C  0.52011382  0.72617777  0.21877254    -0.01900
C1002       C  0.48609287  0.76955939  0.20941818     0.07780
C1003       C  0.95233615  0.79633005  0.22512520    -0.02020
C1004       C  0.95346737  0.78065985  0.25004830    -0.02020
C1005       C  0.48912032  0.73989679  0.25957520     0.07910
C1006       C  0.52299094  0.71354759  0.24372601    -0.02220
Br1007     Br  0.57452816  0.66014965  0.25535660    -0.00760
Br1008     Br  0.56253758  0.68255157  0.19707491    -0.00840
Br1009     Br  0.90858970  0.82000325  0.27141848    -0.00800
Br1010     Br  0.90639946  0.85854347  0.21320450    -0.00780
C1011       C  0.98623319  0.53489236  0.22108803    -0.01900
C1012       C  0.02261000  0.99329527  0.21340027     0.07780
C1013       C  0.55319530  0.96455585  0.23074406    -0.02020
C1014       C  0.54774677  0.97816041  0.25545561    -0.02020
C1015       C  0.01037460  0.51772438  0.26311807     0.07910
C1016       C  0.97876499  0.54436743  0.24578721    -0.02220
Br1017     Br  0.92442628  0.59454380  0.25504860    -0.00760
Br1018     Br  0.94690553  0.58052292  0.19767820    -0.00840
Br1019     Br  0.58916194  0.93826694  0.27903172    -0.00800
Br1020     Br  0.60034689  0.90230349  0.22132146    -0.00780
C1021       C  0.79405885  0.62263699  0.04239766    -0.01900
C1022       C  0.77723241  0.55901219  0.03952646     0.07780
C1023       C  0.72681296  0.55841079  0.04014051    -0.02020
C1024       C  0.69926260  0.61615031  0.03480560    -0.02020
C1025       C  0.71908621  0.68021332  0.03324408     0.07910
C1026       C  0.76885391  0.67769438  0.03398142    -0.02220
Br1027     Br  0.80754513  0.73019810  0.01395436    -0.00760
Br1028     Br  0.83004255  0.64226373  0.07061288    -0.00840
Br1029     Br  0.63377545  0.60250387  0.03120127    -0.00800
Br1030     Br  0.69117085  0.48480942  0.05255129    -0.00780
C1031       C  0.75520101  0.82385648  0.05022692    -0.01900
C1032       C  0.72498047  0.81088308  0.02994794     0.07780
C1033       C  0.72927226  0.86114307  0.01144965    -0.02020
C1034       C  0.75142869  0.92217479  0.01508475    -0.02020
C1035       C  0.78391254  0.93067700  0.03424005     0.07910
C1036       C  0.78930414  0.87385653  0.04957639    -0.02220
Br1037     Br  0.84824747  0.84804088  0.06446753    -0.00760
Br1038     Br  0.75548952  0.77587190  0.08040590    -0.00840
Br1039     Br  0.73353487  0.99483330  0.99339908    -0.00800
Br1040     Br  0.71247973  0.85200756  0.97917200    -0.00780
C1041       C  0.83058943  0.98916142  0.08372011    -0.01900
C1042       C  0.84718118  0.99333240  0.05898983     0.07780
C1043       C  0.89708033  0.99386155  0.05679775    -0.02020
C1044       C  0.92511655  0.00491289  0.07679100    -0.02020
C1045       C  0.90973085  0.98465823  0.09949334     0.07910
C1046       C  0.86191555  0.97855609  0.10320725    -0.02220
Br1047     Br  0.84013922  0.95952545  0.13571816    -0.00760
Br1048     Br  0.76657919  0.49440980  0.09309996    -0.00840
Br1049     Br  0.98483489  0.04488391  0.07236373    -0.00800
Br1050     Br  0.93279608  0.95133847  0.03231692    -0.00780
C1051       C  0.49430694  0.57835839  0.95878005    -0.01900
C1052       C  0.96365739  0.56501858  0.93905737     0.07780
C1053       C  0.96931227  0.60798072  0.91830443    -0.02020
C1054       C  0.00686717  0.65285371  0.91673715    -0.02020
C1055       C  0.52967472  0.67641022  0.93797601     0.07910
C1056       C  0.52874644  0.62805907  0.95729764    -0.02220
Br1057     Br  0.58467441  0.60294480  0.97494520    -0.00760
Br1058     Br  0.49470635  0.52353107  0.98778071    -0.00840
Br1059     Br  0.02454290  0.67553614  0.88355939    -0.00800
Br1060     Br  0.92523912  0.61821937  0.89150568    -0.00780
C1061       C  0.51350167  0.93325896  0.94223449    -0.01900
C1062       C  0.96279247  0.93608908  0.94271899     0.07780
C1063       C  0.94456958  0.87101946  0.94115480    -0.02110
C1064       C  0.97338762  0.81494911  0.93626284    -0.02020
C1065       C  0.52255921  0.81120893  0.94144682     0.07910
C1066       C  0.54007048  0.87454211  0.94679986    -0.02220
Br1067     Br  0.60318162  0.88831224  0.95725606    -0.00760
Br1068     Br  0.55271556  0.99716375  0.92660775    -0.00840
Br1069     Br  0.94454038  0.76278349  0.91259302    -0.00800
Br1070     Br  0.87957715  0.85165509  0.93951915    -0.00780
C1071       C  0.84705488  0.95498942  0.99395464    -0.01900
C1072       C  0.84321541  0.50575326  0.01085202     0.07780
C1073       C  0.86969171  0.56185593  0.00279190    -0.02020
C1074       C  0.89041720  0.56691448  0.97903364    -0.02020
C1075       C  0.89379181  0.51165400  0.96323801     0.07910
C1076       C  0.85964772  0.96572883  0.96990987    -0.02220
Br1077     Br  0.80351984  0.95279554  0.95152361    -0.00760
Br1078     Br  0.85715207  0.86569880  0.00209765    -0.00840
Br1079     Br  0.90345400  0.65589027  0.96827635    -0.00800
Br1080     Br  0.89733886  0.62126985  0.02476423    -0.00780
C1081       C  0.50694580  0.58252718  0.55031560    -0.01900
C1082       C  0.96982026  0.57303442  0.53376932     0.07780
C1083       C  0.95365234  0.63291991  0.52285033    -0.02020
C1084       C  0.98185833  0.68962625  0.52067913    -0.02020
C1085       C  0.52385724  0.69450214  0.53480573     0.07910
C1086       C  0.52554082  0.64478348  0.55389955    -0.02220
Br1087     Br  0.54082874  0.65960230  0.58812476    -0.00760
Br1088     Br  0.53211079  0.51526853  0.57125544    -0.00840
Br1089     Br  0.95001642  0.76345937  0.50454382    -0.00800
Br1090     Br  0.88873440  0.64741364  0.51838205    -0.00780
C1091       C  0.52089855  0.93977734  0.52340848    -0.01900
C1092       C  0.97338269  0.94288405  0.53274196     0.07780
C1093       C  0.95742138  0.88123034  0.54090749    -0.02020
C1094       C  0.98856345  0.82862707  0.54632895    -0.02020
C1095       C  0.53312282  0.82199141  0.53484576     0.07910
C1096       C  0.54968034  0.88195459  0.52493009    -0.02220
Br1097     Br  0.61603445  0.89258459  0.51955898    -0.00760
Br1098     Br  0.55215548  0.00972206  0.50705251    -0.00840
Br1099     Br  0.96696144  0.77110338  0.57138341    -0.00800
Br1100     Br  0.89213983  0.86076559  0.54292348    -0.00780
C1101       C  0.72507039  0.55709392  0.44056256    -0.01900
C1102       C  0.77383369  0.55682708  0.44571513     0.07780
C1103       C  0.78929889  0.62020087  0.45044117    -0.02020
C1104       C  0.76674184  0.67743971  0.44191196    -0.02020
C1105       C  0.71840709  0.67935826  0.43774835     0.07910
C1106       C  0.70160185  0.61483539  0.43261218    -0.02220
Br1107     Br  0.67123373  0.59385094  0.40271871    -0.00760
Br1108     Br  0.68167092  0.49257197  0.45225654    -0.00840
Br1109     Br  0.80736947  0.73302854  0.42419252    -0.00800
Br1110     Br  0.80931956  0.63338490  0.48202094    -0.00780
C1111       C  0.75301323  0.82459236  0.45652790    -0.01900
C1112       C  0.71752978  0.81363612  0.43860451     0.07780
C1113       C  0.71537989  0.86751363  0.42093887    -0.02020
C1114       C  0.74894321  0.91987298  0.42029187    -0.02020
C1115       C  0.78251774  0.92894055  0.43911209     0.07910
C1116       C  0.78799509  0.87279045  0.45430268    -0.02220
Br1117     Br  0.84892744  0.84603867  0.46679254    -0.00760
Br1118     Br  0.75946091  0.77745353  0.48618884    -0.00840
Br1119     Br  0.74927790  0.97720475  0.39194393    -0.00800
Br1120     Br  0.66278038  0.88572089  0.39983047    -0.00780
C1121       C  0.86516833  0.57856928  0.41743057    -0.01900
C1122       C  0.84344959  0.51533376  0.42009814     0.07780
C1123       C  0.85419057  0.97220649  0.40042011    -0.02020
C1124       C  0.87550778  0.49522487  0.37880356    -0.02020
C1125       C  0.88941127  0.56005962  0.37615781     0.07910
C1126       C  0.88217602  0.60232825  0.39508898    -0.02220
Br1127     Br  0.90343290  0.69195015  0.39136984    -0.00760
Br1128     Br  0.89192728  0.62629124  0.44334470    -0.00840
Br1129     Br  0.88522768  0.93872841  0.35171125    -0.00800
Br1130     Br  0.85154172  0.87843534  0.40302106    -0.00780
C1131       C  0.82462372  0.48680170  0.49126409    -0.01900
C1132       C  0.84326581  0.99091580  0.46726822     0.07780
C1133       C  0.89305384  0.98829114  0.46696793    -0.02020
C1134       C  0.91990239  0.00630524  0.48708127    -0.02020
C1135       C  0.90332315  0.00269584  0.51157482     0.07910
C1136       C  0.85325930  0.49056008  0.51267541    -0.02220
Br1137     Br  0.81757260  0.47958041  0.54201082    -0.00760
Br1138     Br  0.75853641  0.47351662  0.49545024    -0.00840
Br1139     Br  0.97149849  0.05747074  0.47627499    -0.00800
Br1140     Br  0.92986949  0.95024591  0.44136252    -0.00780
C1141       C  0.60543611  0.78159782  0.57508218    -0.01900
C1142       C  0.59722623  0.73972149  0.55480157     0.07780
C1143       C  0.62344718  0.67827836  0.55549254    -0.02020
C1144       C  0.65395514  0.66107716  0.57444495    -0.02020
C1145       C  0.65812542  0.70100452  0.59421896     0.07910
C1146       C  0.63546902  0.76160021  0.59432521    -0.02220
Br1147     Br  0.64442677  0.81522608  0.62230500    -0.00760
Br1148     Br  0.57590007  0.86411091  0.58042118    -0.00840
Br1149     Br  0.69209174  0.58204722  0.57327319    -0.00800
Br1150     Br  0.61861274  0.61191871  0.53175100    -0.00780
C1151       C  0.90655158  0.97044226  0.58070181    -0.01900
C1152       C  0.91275414  0.51529549  0.56044082     0.07780
C1153       C  0.89327471  0.57728138  0.56575217    -0.02020
C1154       C  0.85023062  0.58224192  0.57680225    -0.02020
C1155       C  0.84033504  0.53691580  0.59523005     0.07910
C1156       C  0.86862970  0.48025961  0.59728656    -0.02220
Br1157     Br  0.85695372  0.91918238  0.62351733    -0.00760
Br1158     Br  0.95566142  0.91759696  0.59429472    -0.00840
Br1159     Br  0.81429450  0.66150189  0.57188021    -0.00800
Br1160     Br  0.92916932  0.62604071  0.58769264    -0.00780
C1161       C  0.58574885  0.81572098  0.90203092    -0.01900
C1162       C  0.58689928  0.75530491  0.91509152     0.07780
C1163       C  0.61702198  0.70643458  0.90471105    -0.02020
C1164       C  0.64551349  0.72222779  0.88442023    -0.02020
C1165       C  0.65132712  0.78806108  0.87725687     0.07910
C1166       C  0.62336599  0.83538327  0.88807457    -0.02220
Br1167     Br  0.63193048  0.92766986  0.88268405    -0.00760
Br1168     Br  0.53037069  0.84268508  0.88588524    -0.00840
Br1169     Br  0.67797986  0.65422591  0.86740183    -0.00800
Br1170     Br  0.62727201  0.62161886  0.91900879    -0.00780
C1171       C  0.82586281  0.99387521  0.89447941    -0.01900
C1172       C  0.84379671  0.94610559  0.87892067     0.07780
C1173       C  0.89189592  0.93366429  0.87897854    -0.02020
C1174       C  0.92049891  0.96393530  0.89579887    -0.02020
C1175       C  0.90117269  0.99683711  0.91604272     0.07910
C1176       C  0.85471696  0.02127636  0.91220671    -0.02220
Br1177     Br  0.83165825  0.59643847  0.92775165    -0.00760
Br1178     Br  0.76076724  0.01943072  0.89306207    -0.00840
Br1179     Br  0.98086266  0.98533127  0.88357149    -0.00800
Br1180     Br  0.92017004  0.88231994  0.85380518    -0.00780
C1181       C  0.73165498  0.75834608  0.72355054    -0.01900
C1182       C  0.76962672  0.72645841  0.71254421     0.07780
C1183       C  0.80894064  0.70866889  0.72677968    -0.02020
C1184       C  0.80885766  0.71944333  0.75188165    -0.02020
C1185       C  0.76924818  0.74652265  0.76312771     0.07910
C1186       C  0.73047069  0.76576633  0.74868134    -0.02220
Br1187     Br  0.67495068  0.80429986  0.76250804    -0.00760
Br1188     Br  0.68169521  0.79560348  0.70399046    -0.00840
Br1189     Br  0.86232510  0.69390435  0.77107263    -0.00800
Br1190     Br  0.86283645  0.66746073  0.71257323    -0.00780
C1191       C  0.76445958  0.95209595  0.71887228    -0.01900
C1192       C  0.72911453  0.49514570  0.71107892     0.07780
C1193       C  0.69736776  0.52047908  0.72815109    -0.02020
C1194       C  0.70171153  0.50286956  0.75281852    -0.02020
C1195       C  0.73897236  0.96337383  0.76071610     0.07910
C1196       C  0.77130184  0.93948435  0.74357635    -0.02220
Br1197     Br  0.82693924  0.89168087  0.75304103    -0.00760
Br1198     Br  0.80394012  0.90941512  0.69549656    -0.00840
Br1199     Br  0.65911646  0.53923754  0.77604632    -0.00800
Br1200     Br  0.65036109  0.58390090  0.71848908    -0.00780
loop_ 
_geom_bond_atom_site_label_1 
_geom_bond_atom_site_label_2 
_geom_bond_distance 
_geom_bond_site_symmetry_2 
_ccdc_geom_bond_type 
O1            C4   1.271       .  A
O1           Cd6   2.461       .  S
C2           O11   1.267       .  A
C2            O7   1.271       .  A
C2          C265   1.476       .  S
O3            C9   1.269       .  A
O3           Cd6   2.462       .  S
C4           O12   1.264       .  A
C4          C295   1.482       .  S
C5           O10   1.271       .  A
C5            O8   1.266       .  A
C5          C272   1.487       .  S
Cd6          O13   2.427       .  S
Cd6          O12   2.412       .  S
Cd6          O11   2.433       .  S
Cd6           O7   2.414       .  S
Cd6          O10   2.451       .  S
Cd6           O8   2.432       .  S
C9           O13   1.263       .  A
C9          C285   1.487       .  S
O14          C17   1.269       .  A
O14         Cd19   2.423       .  S
C15          O24   1.265       .  A
C15          O20   1.271       .  A
C15         C292   1.476   1_545  S
O16          C22   1.270       .  A
O16         Cd19   2.409       .  S
C17          O25   1.266       .  A
C17         C245   1.472       .  S
C18          O23   1.271       .  A
C18          O21   1.264       .  A
C18         C282   1.488       .  S
Cd19         O26   2.486       .  S
Cd19         O25   2.450       .  S
Cd19         O24   2.362       .  S
Cd19         O20   2.469       .  S
Cd19         O23   2.488       .  S
Cd19         O21   2.384       .  S
C22          O26   1.266       .  A
C22         C255   1.473       .  S
C27         C215   1.636       .  S
C27         C232   1.632       .  S
C27         C502   1.636       .  S
C27         C522   1.625       .  S
C28         C192   1.635       .  S
C28         C235   1.656       .  S
C28         C482   1.611       .  S
C28         C552   1.636       .  S
C29         C152   1.613       .  S
C29         C175   1.657       .  S
C29         C462   1.678   1_545  S
C29         C575   1.594   1_545  S
C30         C122   1.640   1_565  S
C30         C172   1.649   1_565  S
C30         C435   1.617       .  S
C30         C442   1.598       .  S
O31         C634   1.270       .  A
O31        Cd636   2.468       .  S
C32          O41   1.268       .  A
C32          O37   1.272       .  A
C32         C225   1.483       .  S
O33         C639   1.270       .  A
O33         Cd36   2.471   1_455  S
C34          O42   1.262   1_655  A
C34         O631   1.270       .  A
C34         C105   1.485       .  S
C35          O40   1.271       .  A
C35          O38   1.268       .  A
C35          C92   1.481       .  S
Cd36         O42   2.421   1_655  S
Cd36         O40   2.465   1_655  S
Cd36         O38   2.476   1_655  S
Cd36        O631   2.468       .  S
Cd36        O643   2.421       .  S
Cd36        O641   2.443       .  S
Cd36        O637   2.459       .  S
O37        Cd636   2.459       .  S
C39          O43   1.262       .  A
C39         O633   1.270       .  A
C39         C115   1.483       .  S
O41        Cd636   2.443       .  S
O43        Cd636   2.421       .  S
O44         C647   1.272       .  A
O44         Cd49   2.493       .  S
C45          O54   1.267       .  A
C45          O50   1.270       .  A
C45          C85   1.480       .  S
O46         C652   1.271       .  A
O46        Cd649   2.473       .  S
C47          O55   1.263       .  A
C47         O644   1.272       .  A
C47         C112   1.480       .  S
C48          O53   1.269       .  A
C48          O51   1.267       .  A
C48         C145   1.479       .  S
Cd49         O56   2.382       .  S
Cd49         O54   2.452       .  S
Cd49         O50   2.463       .  S
Cd49        O646   2.473   1_455  S
Cd49        O655   2.366   1_455  S
Cd49        O653   2.433   1_455  S
Cd49        O651   2.464   1_455  S
O51        Cd649   2.464       .  S
C52          O56   1.265   1_655  A
C52         O646   1.271       .  A
C52         C102   1.478       .  S
O53        Cd649   2.433       .  S
O55        Cd649   2.366       .  S
C57          C72   1.636       .  S
C57         C155   1.649       .  S
C57         C165   1.660       .  S
C57         C262   1.591       .  S
C58          C75   1.666       .  S
C58          C82   1.600       .  S
C58         C125   1.634       .  S
C58         C132   1.664       .  S
C59          C62   1.630       .  S
C59          C95   1.590       .  S
C59         C205   1.644       .  S
C59         C212   1.670       .  S
C60          C65   1.657       .  S
C60         C185   1.634       .  S
C60         C195   1.621       .  S
C60         C242   1.607       .  S
C61          C62   1.443       .  A
C61          C66   1.432       .  A
C61         Br68   1.913       .  S
C62          C63   1.426       .  A
C63          C64   1.416       .  A
C63         Br70   1.904       .  S
C64          C65   1.451       .  A
C64         Br69   1.953       .  S
C65          C66   1.445       .  A
C66         Br67   1.902       .  S
C71          C72   1.438       .  A
C71          C76   1.447   1_556  A
C71         Br78   1.951       .  S
C72          C73   1.453       .  A
C73          C74   1.428       .  A
C73         Br80   1.950       .  S
C74          C75   1.429   1_556  A
C74         Br79   1.932       .  S
C75          C76   1.472       .  A
C76         Br77   1.963       .  S
C81          C82   1.463       .  A
C81          C86   1.422       .  A
C81         Br88   1.939       .  S
C82          C83   1.453       .  A
C83          C84   1.407       .  A
C83         Br90   1.949       .  S
C84          C85   1.392       .  A
C84         Br89   1.929       .  S
C85          C86   1.395       .  A
C86         Br87   1.946       .  S
C91          C92   1.401       .  A
C91          C96   1.417       .  A
C91         Br98   1.933       .  S
C92          C93   1.398       .  A
C93          C94   1.411       .  A
C93        Br100   1.939       .  S
C94          C95   1.456       .  A
C94         Br99   1.961       .  S
C95          C96   1.438       .  A
C96         Br97   1.930       .  S
C101        C102   1.406   1_455  A
C101        C106   1.404       .  A
C101       Br108   1.937       .  S
C102        C703   1.417       .  A
C103        C104   1.411       .  A
C103        C702   1.417       .  A
C103       Br110   1.932       .  S
C104        C705   1.410       .  A
C104       Br109   1.932       .  S
C105        C106   1.420   1_655  A
C105        C704   1.410       .  A
C106       Br107   1.934       .  S
C111        C116   1.403       .  A
C111        C412   1.409   1_545  A
C111       Br118   1.939       .  S
C112        C411   1.409       .  A
C112        C713   1.417       .  A
C113        C114   1.412       .  A
C113        C712   1.417       .  A
C113       Br120   1.931       .  S
C114       C1015   1.409       .  A
C114       Br119   1.930       .  S
C115        C116   1.419       .  A
C115       C1014   1.409   1_545  A
C116       Br117   1.935       .  S
C121        C122   1.412       .  A
C121        C126   1.406       .  A
C121       Br128   1.930       .  S
C122        C123   1.450       .  A
C123        C124   1.442       .  A
C123       Br130   1.949   1_545  S
C124        C125   1.442       .  A
C124       Br129   1.919       .  S
C125        C126   1.431       .  A
C126       Br127   1.898       .  S
C131        C132   1.453       .  A
C131        C136   1.429       .  A
C131       Br138   1.921       .  S
C132        C133   1.444       .  A
C133        C134   1.432       .  A
C133       Br140   1.870   1_554  S
C134        C135   1.431       .  A
C134       Br139   1.958   1_554  S
C135        C330   1.618       .  S
C135        C136   1.435       .  A
C136       Br137   1.948       .  S
C141        C142   1.451       .  A
C141        C146   1.419       .  A
C141       Br448   1.905       .  S
C142        C330   1.598       .  S
C142        C143   1.439       .  A
C143        C144   1.396       .  A
C143       Br150   1.919       .  S
C144        C145   1.389       .  A
C144       Br149   1.925       .  S
C145        C146   1.396       .  A
C146       Br147   1.939       .  S
Br148       C441   1.905       .  S
C151        C156   1.433   1_655  A
C151        C752   1.439       .  A
C151       Br158   1.940       .  S
C152        C153   1.442       .  A
C152        C751   1.439       .  A
C153        C154   1.427       .  A
C153       Br160   1.957       .  S
C154        C755   1.441       .  A
C154       Br159   1.952       .  S
C155        C156   1.444       .  A
C155        C754   1.441       .  A
C156       Br157   1.941       .  S
C161        C166   1.437       .  A
C161        C762   1.461   1_455  A
C161       Br168   1.932       .  S
C162        C329   1.677       .  S
C162        C163   1.448       .  A
C162        C761   1.461       .  A
C163        C164   1.434       .  A
C163       Br170   1.914       .  S
C164        C765   1.439       .  A
C164       Br169   1.913       .  S
C165        C166   1.438       .  A
C165        C764   1.439   1_455  A
C166       Br167   1.933       .  S
C171        C176   1.394       .  A
C171        C472   1.430   1_556  A
C171       Br178   1.897   1_556  S
C172        C173   1.451       .  A
C172        C471   1.431   1_544  A
C173        C174   1.446   1_554  A
C173       Br180   1.924       .  S
C174        C175   1.451       .  A
C174       Br179   1.949       .  S
C175        C476   1.418   1_545  A
C176        C475   1.418       .  A
C176       Br177   1.935       .  S
C181        C186   1.411       .  A
C181        C782   1.427   1_455  A
C181       Br188   1.918       .  S
C182        C328   1.611       .  S
C182        C183   1.431       .  A
C182        C781   1.427       .  A
C183        C184   1.430       .  A
C183       Br190   1.901       .  S
C184        C785   1.446       .  A
C184       Br189   1.960       .  S
C185        C186   1.453       .  A
C185        C784   1.446   1_455  A
C186       Br187   1.979       .  S
C191        C196   1.439       .  A
C191        C792   1.461   1_455  A
C191       Br198   1.914       .  S
C192        C193   1.416       .  A
C192        C791   1.461       .  A
C193        C194   1.421       .  A
C193       Br200   1.931       .  S
C194        C795   1.435       .  A
C194       Br199   1.910       .  S
C195        C196   1.424       .  A
C195        C794   1.435   1_455  A
C196       Br197   1.944       .  S
C201        C202   1.431       .  A
C201        C206   1.418       .  A
C201       Br208   1.932   1_545  S
C202        C327   1.636   1_545  S
C202        C203   1.412       .  A
C203        C204   1.407       .  A
C203       Br210   1.870       .  S
C204        C205   1.409       .  A
C204       Br209   1.899       .  S
C205        C206   1.451       .  A
C206       Br207   1.934       .  S
C211        C212   1.449       .  A
C211        C216   1.423       .  A
C211       Br218   1.896       .  S
C212        C213   1.461       .  A
C213        C214   1.454       .  A
C213       Br220   1.940       .  S
C214        C215   1.439       .  A
C214       Br219   1.941       .  S
C215        C216   1.419       .  A
C216       Br217   1.952       .  S
C221        C222   1.453       .  A
C221        C226   1.409       .  A
C221       Br228   1.925       .  S
C222        C327   1.625   1_545  S
C222        C523   1.451   1_545  A
C223        C522   1.451       .  A
C223        C524   1.421       .  A
C223       Br230   1.930       .  S
C224        C225   1.400   1_565  A
C224        C523   1.422       .  A
C224       Br529   1.937       .  S
C225        C226   1.391       .  A
C226       Br227   1.953       .  S
Br229       C524   1.937       .  S
C231        C236   1.450       .  A
C231        C532   1.431       .  A
C231       Br238   1.935       .  S
C232        C233   1.431       .  A
C232        C531   1.431       .  A
C233        C234   1.416       .  A
C233       Br240   1.941       .  S
C234        C235   1.438       .  A
C234       Br239   1.916       .  S
C235        C536   1.464       .  A
C236        C535   1.464   1_565  A
C236       Br237   1.931       .  S
C241        C242   1.453       .  A
C241        C246   1.423       .  A
C241       Br248   1.915       .  S
C242        C243   1.461       .  A
C243        C244   1.405       .  A
C243       Br250   1.923       .  S
C244        C245   1.391       .  A
C244       Br249   1.949       .  S
C245        C246   1.397       .  A
C246       Br247   1.943       .  S
C251        C552   1.450       .  A
C251        C556   1.436       .  A
C251       Br258   1.914       .  S
C252        C328   1.636       .  S
C252        C253   1.421       .  A
C252        C551   1.450   1_545  A
C253        C254   1.383       .  A
C253       Br260   1.907       .  S
C254        C255   1.397       .  A
C254       Br259   1.931       .  S
C255        C256   1.413   1_545  A
C256        C551   1.436       .  A
C256       Br557   1.931       .  S
Br257       C556   1.931       .  S
C261        C262   1.420       .  A
C261        C266   1.384       .  A
C261       Br268   1.893       .  S
C262        C263   1.445       .  A
C263        C264   1.424       .  A
C263       Br270   1.915       .  S
C264        C265   1.413       .  A
C264       Br269   1.932       .  S
C265        C266   1.398       .  A
C266       Br267   1.930       .  S
C271        C272   1.413       .  A
C271        C276   1.418       .  A
C271       Br278   1.938       .  S
C272        C273   1.402       .  A
C273        C274   1.405       .  A
C273       Br280   1.941       .  S
C274        C275   1.430       .  A
C274       Br279   1.911       .  S
C275        C329   1.593       .  S
C275        C276   1.435       .  A
C276       Br577   1.940       .  S
Br277       C576   1.942       .  S
C281        C282   1.410       .  A
C281        C286   1.405       .  A
C281       Br288   1.939       .  S
C282        C283   1.418       .  A
C283        C284   1.414       .  A
C283       Br290   1.931       .  S
C284        C285   1.411       .  A
C284       Br289   1.931       .  S
C285        C286   1.420       .  A
C286       Br287   1.937       .  S
C291        C296   1.401       .  A
C291        C592   1.406       .  A
C291       Br298   1.938       .  S
C292        C293   1.416   1_565  A
C292        C591   1.406       .  A
C293        C294   1.411       .  A
C293       Br300   1.932       .  S
C294        C595   1.410   1_545  A
C294       Br299   1.931       .  S
C295        C296   1.419       .  A
C295        C594   1.410       .  A
C296       Br297   1.932       .  S
O301        C304   1.271       .  A
O301       Cd306   2.461       .  S
C302        O311   1.267       .  A
C302        O307   1.271       .  A
C302        C565   1.478       .  S
O303        C309   1.269       .  A
O303       Cd306   2.465       .  S
C304        O312   1.264       .  A
C304        C595   1.482       .  S
C305        O310   1.271       .  A
C305        O308   1.266       .  A
C305        C572   1.488       .  S
Cd306       O313   2.430       .  S
Cd306       O312   2.413       .  S
Cd306       O311   2.436       .  S
Cd306       O307   2.419       .  S
Cd306       O310   2.455       .  S
Cd306       O308   2.434       .  S
C309        O313   1.263       .  A
C309        C585   1.488       .  S
O314        C317   1.269       .  A
O314       Cd319   2.423       .  S
C315        O324   1.265       .  A
C315        O320   1.271       .  A
C315        C592   1.476       .  S
O316        C322   1.270       .  A
O316       Cd319   2.410       .  S
C317        O325   1.266       .  A
C317        C545   1.472       .  S
C318        O323   1.271       .  A
C318        O321   1.264       .  A
C318        C582   1.488       .  S
Cd319       O326   2.487       .  S
Cd319       O325   2.450       .  S
Cd319       O324   2.361       .  S
Cd319       O320   2.469       .  S
Cd319       O323   2.490       .  S
Cd319       O321   2.385       .  S
C322        O326   1.266       .  A
C322        C555   1.473       .  S
C327        C515   1.636       .  S
C327        C532   1.632       .  S
C328        C492   1.635   1_545  S
C328        C535   1.656       .  S
C329        C452   1.613       .  S
C329        C475   1.657       .  S
C330        C422   1.641       .  S
C330        C472   1.649       .  S
O331        C934   1.270       .  A
O331       Cd936   2.467       .  S
C332        O341   1.268       .  A
C332        O337   1.272       .  A
C332        C525   1.482       .  S
O333        C939   1.270       .  A
O333       Cd336   2.471   1_455  S
C334        O931   1.270       .  A
C334        O342   1.262   1_655  A
C334        C405   1.484       .  S
C335        O340   1.271       .  A
C335        O338   1.268       .  A
C335        C392   1.481       .  S
Cd336       O931   2.467       .  S
Cd336       O943   2.421       .  S
Cd336       O342   2.420   1_655  S
Cd336       O941   2.443       .  S
Cd336       O937   2.458       .  S
Cd336       O340   2.465   1_655  S
Cd336       O338   2.476   1_655  S
O337       Cd936   2.458       .  S
C339        O933   1.270       .  A
C339        O343   1.262       .  A
C339        C415   1.483       .  S
O341       Cd936   2.443       .  S
O343       Cd936   2.421       .  S
O344        C947   1.272       .  A
O344       Cd349   2.493       .  S
C345        O354   1.267       .  A
C345        O350   1.270       .  A
C345        C385   1.480       .  S
O346        C952   1.271       .  A
O346       Cd949   2.473       .  S
C347        O944   1.272       .  A
C347        O355   1.263       .  A
C347        C412   1.480       .  S
C348        O353   1.269       .  A
C348        O351   1.267       .  A
C348        C445   1.479       .  S
Cd349       O946   2.473   1_455  S
Cd349       O356   2.380       .  S
Cd349       O955   2.366   1_455  S
Cd349       O354   2.452       .  S
Cd349       O350   2.462       .  S
Cd349       O953   2.432   1_455  S
Cd349       O951   2.465   1_455  S
O351       Cd949   2.465       .  S
C352        O946   1.271       .  A
C352        O356   1.265   1_655  A
C352        C402   1.478       .  S
O353       Cd949   2.432       .  S
O355       Cd949   2.366       .  S
C357        C372   1.637       .  S
C357        C455   1.651       .  S
C357        C465   1.665       .  S
C357        C562   1.592       .  S
C358        C375   1.668       .  S
C358        C382   1.600       .  S
C358        C425   1.635       .  S
C358        C432   1.665       .  S
C359        C362   1.630       .  S
C359        C395   1.590       .  S
C359        C505   1.643       .  S
C359        C512   1.670       .  S
C360        C365   1.657       .  S
C360        C485   1.634       .  S
C360        C495   1.621       .  S
C360        C542   1.607       .  S
C361        C362   1.443       .  A
C361        C366   1.432       .  A
C361       Br368   1.913       .  S
C362        C363   1.427       .  A
C363        C364   1.416       .  A
C363       Br370   1.904       .  S
C364        C365   1.451       .  A
C364       Br369   1.953       .  S
C365        C366   1.445       .  A
C366       Br367   1.902       .  S
C371        C372   1.438       .  A
C371        C376   1.447   1_556  A
C371       Br378   1.951       .  S
C372        C373   1.453       .  A
C373        C374   1.429       .  A
C373       Br380   1.951       .  S
C374        C375   1.430   1_556  A
C374       Br379   1.931       .  S
C375        C376   1.472       .  A
C376       Br377   1.963       .  S
C381        C382   1.463       .  A
C381        C386   1.422       .  A
C381       Br388   1.939       .  S
C382        C383   1.453       .  A
C383        C384   1.407       .  A
C383       Br390   1.948       .  S
C384        C385   1.391       .  A
C384       Br389   1.929       .  S
C385        C386   1.394       .  A
C386       Br387   1.946       .  S
C391        C392   1.401       .  A
C391        C396   1.417       .  A
C391       Br398   1.933       .  S
C392        C393   1.398       .  A
C393        C394   1.411       .  A
C393       Br400   1.939       .  S
C394        C395   1.456       .  A
C394       Br399   1.961       .  S
C395        C396   1.438       .  A
C396       Br397   1.930       .  S
C401        C402   1.406   1_455  A
C401        C406   1.403       .  A
C401       Br408   1.937       .  S
C402       C1003   1.417       .  A
C403       C1002   1.417       .  A
C403        C404   1.411       .  A
C403       Br410   1.932       .  S
C404       C1005   1.410       .  A
C404       Br409   1.932       .  S
C405       C1004   1.410       .  A
C405        C406   1.420   1_655  A
C406       Br407   1.934       .  S
C411        C416   1.403       .  A
C411       Br418   1.939       .  S
C412       C1013   1.417       .  A
C413       C1012   1.417       .  A
C413        C414   1.412       .  A
C413       Br420   1.931       .  S
C414        C715   1.409   1_565  A
C414       Br419   1.930       .  S
C415        C714   1.409       .  A
C415        C416   1.419       .  A
C416       Br417   1.935       .  S
C421        C422   1.412       .  A
C421        C426   1.406       .  A
C421       Br428   1.930       .  S
C422        C423   1.450       .  A
C423        C424   1.442       .  A
C423       Br430   1.948       .  S
C424        C425   1.441       .  A
C424       Br429   1.918       .  S
C425        C426   1.431       .  A
C426       Br427   1.898       .  S
C431        C432   1.454       .  A
C431        C436   1.429       .  A
C431       Br438   1.921       .  S
C432        C433   1.444       .  A
C433        C434   1.432       .  A
C433       Br440   1.868   1_554  S
C434        C435   1.431       .  A
C434       Br439   1.958   1_554  S
C435        C436   1.434       .  A
C436       Br437   1.948       .  S
C441        C442   1.451       .  A
C441        C446   1.419       .  A
C442        C443   1.439       .  A
C443        C444   1.396   1_565  A
C443       Br450   1.919       .  S
C444        C445   1.389   1_545  A
C444       Br449   1.925       .  S
C445        C446   1.396       .  A
C446       Br447   1.939       .  S
C451       C1052   1.439       .  A
C451        C456   1.432   1_655  A
C451       Br458   1.940       .  S
C452       C1051   1.439       .  A
C452        C453   1.443       .  A
C453        C454   1.430       .  A
C453       Br460   1.960       .  S
C454       C1055   1.445       .  A
C454       Br459   1.954       .  S
C455       C1054   1.445       .  A
C455        C456   1.444       .  A
C456       Br457   1.941       .  S
C461       C1062   1.458   1_455  A
C461        C466   1.437       .  A
C461       Br468   1.930       .  S
C462       C1061   1.458       .  A
C462        C463   1.447       .  A
C463        C464   1.440       .  A
C463       Br470   1.918       .  S
C464       C1065   1.443       .  A
C464       Br469   1.911       .  S
C465       C1064   1.443   1_455  A
C465        C466   1.439       .  A
C466       Br467   1.932       .  S
C471        C476   1.393       .  A
C471       Br478   1.897   1_556  S
C472        C473   1.450       .  A
C473        C474   1.446   1_554  A
C473       Br480   1.925       .  S
C474        C475   1.452       .  A
C474       Br479   1.950       .  S
C476       Br477   1.934       .  S
C481       C1082   1.427   1_455  A
C481        C486   1.411       .  A
C481       Br488   1.918       .  S
C482       C1081   1.427       .  A
C482        C483   1.430       .  A
C483        C484   1.430       .  A
C483       Br490   1.901       .  S
C484       C1085   1.446       .  A
C484       Br489   1.960       .  S
C485       C1084   1.446   1_455  A
C485        C486   1.454       .  A
C486       Br487   1.979       .  S
C491       C1092   1.460   1_455  A
C491        C496   1.439       .  A
C491       Br498   1.914   1_565  S
C492       C1091   1.460       .  A
C492        C493   1.416       .  A
C493        C494   1.421       .  A
C493       Br500   1.931       .  S
C494       C1095   1.435       .  A
C494       Br499   1.910       .  S
C495       C1094   1.435   1_455  A
C495        C496   1.424       .  A
C496       Br497   1.944       .  S
C501        C502   1.431       .  A
C501        C506   1.418       .  A
C501       Br508   1.932       .  S
C502        C503   1.412       .  A
C503        C504   1.407       .  A
C503       Br510   1.870       .  S
C504        C505   1.409       .  A
C504       Br509   1.900       .  S
C505        C506   1.451       .  A
C506       Br507   1.934       .  S
C511        C512   1.449       .  A
C511        C516   1.423       .  A
C511       Br518   1.896       .  S
C512        C513   1.461       .  A
C513        C514   1.454       .  A
C513       Br520   1.941       .  S
C514        C515   1.439       .  A
C514       Br519   1.941       .  S
C515        C516   1.419       .  A
C516       Br517   1.952       .  S
C521        C522   1.453       .  A
C521        C526   1.409       .  A
C521       Br528   1.925       .  S
C523       Br530   1.931       .  S
C524        C525   1.400       .  A
C525        C526   1.391       .  A
C526       Br527   1.953       .  S
C531        C536   1.450       .  A
C531       Br538   1.935       .  S
C532        C533   1.431       .  A
C533        C534   1.416   1_565  A
C533       Br540   1.941       .  S
C534        C535   1.438       .  A
C534       Br539   1.916       .  S
C536       Br537   1.931       .  S
C541        C542   1.453       .  A
C541        C546   1.423       .  A
C541       Br548   1.915       .  S
C542        C543   1.461       .  A
C543        C544   1.405       .  A
C543       Br550   1.923       .  S
C544        C545   1.391       .  A
C544       Br549   1.949       .  S
C545        C546   1.397       .  A
C546       Br547   1.943       .  S
C551       Br558   1.914       .  S
C552        C553   1.421       .  A
C553        C554   1.383       .  A
C553       Br560   1.907       .  S
C554        C555   1.397       .  A
C554       Br559   1.931       .  S
C555        C556   1.413       .  A
C561        C562   1.422       .  A
C561        C566   1.387       .  A
C561       Br568   1.897       .  S
C562        C563   1.446       .  A
C563        C564   1.423       .  A
C563       Br570   1.916       .  S
C564        C565   1.412       .  A
C564       Br569   1.933       .  S
C565        C566   1.398       .  A
C566       Br567   1.931       .  S
C571        C572   1.413       .  A
C571        C576   1.418   1_565  A
C571       Br578   1.938   1_565  S
C572        C573   1.403       .  A
C573        C574   1.406       .  A
C573       Br580   1.940       .  S
C574        C575   1.431       .  A
C574       Br579   1.914       .  S
C575        C576   1.435   1_565  A
C581        C582   1.411       .  A
C581        C586   1.405       .  A
C581       Br588   1.939       .  S
C582        C583   1.418       .  A
C583        C584   1.414       .  A
C583       Br590   1.931       .  S
C584        C585   1.411       .  A
C584       Br589   1.931       .  S
C585        C586   1.420       .  A
C586       Br587   1.937       .  S
C591        C596   1.401       .  A
C591       Br598   1.938       .  S
C592        C593   1.416       .  A
C593        C594   1.411       .  A
C593       Br600   1.932       .  S
C594       Br599   1.931       .  S
C595        C596   1.419       .  A
C596       Br597   1.932       .  S
O601        C604   1.271       .  A
O601       Cd606   2.461       .  S
C602        O611   1.267       .  A
C602        O607   1.271       .  A
C602        C865   1.476       .  S
O603        C609   1.269       .  A
O603       Cd606   2.462       .  S
C604        O612   1.264       .  A
C604        C895   1.482       .  S
C605        O610   1.271       .  A
C605        O608   1.266       .  A
C605        C872   1.487       .  S
Cd606       O613   2.427       .  S
Cd606       O612   2.412       .  S
Cd606       O611   2.433       .  S
Cd606       O607   2.414       .  S
Cd606       O610   2.451       .  S
Cd606       O608   2.432       .  S
C609        O613   1.263       .  A
C609        C885   1.487       .  S
O614        C617   1.269       .  A
O614       Cd619   2.423       .  S
C615        O624   1.265       .  A
C615        O620   1.271       .  A
C615        C892   1.476   1_545  S
O616        C622   1.270       .  A
O616       Cd619   2.409       .  S
C617        O625   1.266       .  A
C617        C845   1.472       .  S
C618        O623   1.271       .  A
C618        O621   1.264       .  A
C618        C882   1.488       .  S
Cd619       O626   2.486       .  S
Cd619       O625   2.450       .  S
Cd619       O624   2.362       .  S
Cd619       O620   2.469       .  S
Cd619       O623   2.488       .  S
Cd619       O621   2.384       .  S
C622        O626   1.266       .  A
C622        C855   1.473       .  S
C627       C1102   1.636       .  S
C627        C815   1.636       .  S
C627       C1122   1.625       .  S
C627        C832   1.632       .  S
C628       C1082   1.611       .  S
C628        C792   1.635       .  S
C628        C835   1.656       .  S
C628       C1152   1.636       .  S
C629        C752   1.613       .  S
C629       C1062   1.678   1_545  S
C629        C775   1.657       .  S
C629       C1175   1.594   1_545  S
C630        C722   1.640   1_565  S
C630       C1035   1.617       .  S
C630       C1042   1.598       .  S
C630        C772   1.649   1_565  S
C632        O641   1.268       .  A
C632        O637   1.272       .  A
C632        C825   1.483       .  S
O633       Cd636   2.471       .  S
C634        O642   1.262       .  A
C634        C705   1.485       .  S
C635        O640   1.271       .  A
C635        O638   1.268       .  A
C635        C692   1.481       .  S
Cd636       O642   2.421       .  S
Cd636       O640   2.465       .  S
Cd636       O638   2.476       .  S
C639        O643   1.262   1_455  A
C639        C715   1.483       .  S
O644       Cd649   2.493       .  S
C645        O654   1.267       .  A
C645        O650   1.270       .  A
C645        C685   1.480       .  S
C647        O655   1.263   1_455  A
C647        C712   1.480       .  S
C648        O653   1.269       .  A
C648        O651   1.267       .  A
C648        C745   1.479       .  S
Cd649       O656   2.382       .  S
Cd649       O654   2.452       .  S
Cd649       O650   2.463       .  S
C652        O656   1.265       .  A
C652        C702   1.478       .  S
C657        C672   1.636       .  S
C657        C755   1.649       .  S
C657        C765   1.660       .  S
C657        C862   1.591       .  S
C658        C675   1.666       .  S
C658        C682   1.600       .  S
C658        C725   1.634       .  S
C658        C732   1.664       .  S
C659        C662   1.630       .  S
C659        C695   1.590       .  S
C659        C805   1.644       .  S
C659        C812   1.670       .  S
C660        C665   1.657       .  S
C660        C785   1.634       .  S
C660        C795   1.621       .  S
C660        C842   1.607       .  S
C661        C662   1.443       .  A
C661        C666   1.432       .  A
C661       Br668   1.913       .  S
C662        C663   1.426       .  A
C663        C664   1.416       .  A
C663       Br670   1.904       .  S
C664        C665   1.451       .  A
C664       Br669   1.953       .  S
C665        C666   1.445       .  A
C666       Br667   1.902       .  S
C671        C672   1.438       .  A
C671        C676   1.447   1_556  A
C671       Br678   1.951       .  S
C672        C673   1.453       .  A
C673        C674   1.428       .  A
C673       Br680   1.950       .  S
C674        C675   1.429   1_556  A
C674       Br679   1.932       .  S
C675        C676   1.472       .  A
C676       Br677   1.963       .  S
C681        C682   1.463       .  A
C681        C686   1.422       .  A
C681       Br688   1.939       .  S
C682        C683   1.453       .  A
C683        C684   1.407       .  A
C683       Br690   1.949       .  S
C684        C685   1.392       .  A
C684       Br689   1.929       .  S
C685        C686   1.395       .  A
C686       Br687   1.946       .  S
C691        C692   1.401       .  A
C691        C696   1.417       .  A
C691       Br698   1.933       .  S
C692        C693   1.398       .  A
C693        C694   1.411       .  A
C693       Br700   1.939       .  S
C694        C695   1.456       .  A
C694       Br699   1.961       .  S
C695        C696   1.438       .  A
C696       Br697   1.930       .  S
C701        C702   1.406       .  A
C701        C706   1.404       .  A
C701       Br708   1.937       .  S
C703        C704   1.411       .  A
C703       Br710   1.932       .  S
C704       Br709   1.932       .  S
C705        C706   1.420       .  A
C706       Br707   1.934       .  S
C711       C1012   1.409   1_645  A
C711        C716   1.403       .  A
C711       Br718   1.939       .  S
C712       C1011   1.409   1_455  A
C713        C714   1.412       .  A
C713       Br720   1.931       .  S
C714       Br719   1.930       .  S
C715        C716   1.419   1_455  A
C716       Br717   1.935       .  S
C721        C722   1.412       .  A
C721        C726   1.406       .  A
C721       Br728   1.930       .  S
C722        C723   1.450       .  A
C723        C724   1.442       .  A
C723       Br730   1.949   1_545  S
C724        C725   1.442       .  A
C724       Br729   1.919       .  S
C725        C726   1.431       .  A
C726       Br727   1.898       .  S
C731        C732   1.453       .  A
C731        C736   1.429       .  A
C731       Br738   1.921       .  S
C732        C733   1.444       .  A
C733        C734   1.432       .  A
C733       Br740   1.870   1_554  S
C734        C735   1.431       .  A
C734       Br739   1.958   1_554  S
C735        C930   1.618       .  S
C735        C736   1.435       .  A
C736       Br737   1.948       .  S
C741        C742   1.451       .  A
C741        C746   1.419       .  A
C741      Br1048   1.905       .  S
C742        C930   1.598       .  S
C742        C743   1.439       .  A
C743        C744   1.396       .  A
C743       Br750   1.919       .  S
C744        C745   1.389       .  A
C744       Br749   1.925       .  S
C745        C746   1.396       .  A
C746       Br747   1.939       .  S
Br748      C1041   1.905       .  S
C751        C756   1.433       .  A
C751       Br758   1.940       .  S
C752        C753   1.442       .  A
C753        C754   1.427   1_655  A
C753       Br760   1.957       .  S
C754       Br759   1.952       .  S
C755        C756   1.444       .  A
C756       Br757   1.941       .  S
C761        C766   1.437       .  A
C761       Br768   1.932       .  S
C762        C929   1.677       .  S
C762        C763   1.448       .  A
C763        C764   1.434       .  A
C763       Br770   1.914       .  S
C764       Br769   1.913       .  S
C765        C766   1.438       .  A
C766       Br767   1.933       .  S
C771       C1072   1.430   1_556  A
C771        C776   1.394       .  A
C771       Br778   1.897   1_556  S
C772       C1071   1.431   1_544  A
C772        C773   1.451       .  A
C773        C774   1.446   1_554  A
C773       Br780   1.924       .  S
C774        C775   1.451       .  A
C774       Br779   1.949       .  S
C775       C1076   1.418   1_545  A
C776       C1075   1.418       .  A
C776       Br777   1.935       .  S
C781        C786   1.411       .  A
C781       Br788   1.918       .  S
C782        C928   1.611       .  S
C782        C783   1.431       .  A
C783        C784   1.430       .  A
C783       Br790   1.901       .  S
C784       Br789   1.960       .  S
C785        C786   1.453       .  A
C786       Br787   1.979       .  S
C791        C796   1.439       .  A
C791       Br798   1.914       .  S
C792        C793   1.416       .  A
C793        C794   1.421       .  A
C793       Br800   1.931       .  S
C794       Br799   1.910       .  S
C795        C796   1.424       .  A
C796       Br797   1.944       .  S
C801        C802   1.431       .  A
C801        C806   1.418       .  A
C801       Br808   1.932   1_545  S
C802        C927   1.636   1_545  S
C802        C803   1.412       .  A
C803        C804   1.407       .  A
C803       Br810   1.870       .  S
C804        C805   1.409       .  A
C804       Br809   1.899       .  S
C805        C806   1.451       .  A
C806       Br807   1.934       .  S
C811        C812   1.449       .  A
C811        C816   1.423       .  A
C811       Br818   1.896       .  S
C812        C813   1.461       .  A
C813        C814   1.454       .  A
C813       Br820   1.940       .  S
C814        C815   1.439       .  A
C814       Br819   1.941       .  S
C815        C816   1.419       .  A
C816       Br817   1.952       .  S
C821        C822   1.453       .  A
C821        C826   1.409       .  A
C821       Br828   1.925       .  S
C822        C927   1.625   1_545  S
C822       C1123   1.451   1_545  A
C823       C1122   1.451       .  A
C823       C1124   1.421       .  A
C823       Br830   1.930       .  S
C824       C1123   1.422       .  A
C824        C825   1.400   1_565  A
C824      Br1129   1.937       .  S
C825        C826   1.391       .  A
C826       Br827   1.953       .  S
Br829      C1124   1.937       .  S
C831       C1132   1.431       .  A
C831        C836   1.450       .  A
C831       Br838   1.935       .  S
C832       C1131   1.431       .  A
C832        C833   1.431       .  A
C833        C834   1.416       .  A
C833       Br840   1.941       .  S
C834        C835   1.438       .  A
C834       Br839   1.916       .  S
C835       C1136   1.464       .  A
C836       C1135   1.464   1_565  A
C836       Br837   1.931       .  S
C841        C842   1.453       .  A
C841        C846   1.423       .  A
C841       Br848   1.915       .  S
C842        C843   1.461       .  A
C843        C844   1.405       .  A
C843       Br850   1.923       .  S
C844        C845   1.391       .  A
C844       Br849   1.949       .  S
C845        C846   1.397       .  A
C846       Br847   1.943       .  S
C851       C1152   1.450       .  A
C851       C1156   1.436       .  A
C851       Br858   1.914       .  S
C852        C928   1.636       .  S
C852       C1151   1.450   1_545  A
C852        C853   1.421       .  A
C853        C854   1.383       .  A
C853       Br860   1.907       .  S
C854        C855   1.397       .  A
C854       Br859   1.931       .  S
C855        C856   1.413   1_545  A
C856       C1151   1.436       .  A
C856      Br1157   1.931       .  S
Br857      C1156   1.931       .  S
C861        C862   1.420       .  A
C861        C866   1.384       .  A
C861       Br868   1.893       .  S
C862        C863   1.445       .  A
C863        C864   1.424       .  A
C863       Br870   1.915       .  S
C864        C865   1.413       .  A
C864       Br869   1.932       .  S
C865        C866   1.398       .  A
C866       Br867   1.930       .  S
C871        C872   1.413       .  A
C871        C876   1.418       .  A
C871       Br878   1.938       .  S
C872        C873   1.402       .  A
C873        C874   1.405       .  A
C873       Br880   1.941       .  S
C874        C875   1.430       .  A
C874       Br879   1.911       .  S
C875        C929   1.593       .  S
C875        C876   1.435       .  A
C876      Br1177   1.940       .  S
Br877      C1176   1.942       .  S
C881        C882   1.410       .  A
C881        C886   1.405       .  A
C881       Br888   1.939       .  S
C882        C883   1.418       .  A
C883        C884   1.414       .  A
C883       Br890   1.931       .  S
C884        C885   1.411       .  A
C884       Br889   1.931       .  S
C885        C886   1.420       .  A
C886       Br887   1.937       .  S
C891       C1192   1.406       .  A
C891        C896   1.401       .  A
C891       Br898   1.938       .  S
C892       C1191   1.406       .  A
C892        C893   1.416   1_565  A
C893        C894   1.411       .  A
C893       Br900   1.932       .  S
C894       C1195   1.410   1_545  A
C894       Br899   1.931       .  S
C895       C1194   1.410       .  A
C895        C896   1.419       .  A
C896       Br897   1.932       .  S
O901        C904   1.271       .  A
O901       Cd906   2.461       .  S
C902        O911   1.267       .  A
C902        O907   1.271       .  A
C902       C1165   1.478       .  S
O903        C909   1.269       .  A
O903       Cd906   2.465       .  S
C904        O912   1.264       .  A
C904       C1195   1.482       .  S
C905        O910   1.271       .  A
C905        O908   1.266       .  A
C905       C1172   1.488       .  S
Cd906       O913   2.430       .  S
Cd906       O912   2.413       .  S
Cd906       O911   2.436       .  S
Cd906       O907   2.419       .  S
Cd906       O910   2.455       .  S
Cd906       O908   2.434       .  S
C909        O913   1.263       .  A
C909       C1185   1.488       .  S
O914        C917   1.269       .  A
O914       Cd919   2.423       .  S
C915        O924   1.265       .  A
C915        O920   1.271       .  A
C915       C1192   1.476       .  S
O916        C922   1.270       .  A
O916       Cd919   2.410       .  S
C917        O925   1.266       .  A
C917       C1145   1.472       .  S
C918        O923   1.271       .  A
C918        O921   1.264       .  A
C918       C1182   1.488       .  S
Cd919       O926   2.487       .  S
Cd919       O925   2.450       .  S
Cd919       O924   2.361       .  S
Cd919       O920   2.469       .  S
Cd919       O923   2.490       .  S
Cd919       O921   2.385       .  S
C922        O926   1.266       .  A
C922       C1155   1.473       .  S
C927       C1115   1.636       .  S
C927       C1132   1.632       .  S
C928       C1092   1.635   1_545  S
C928       C1135   1.656       .  S
C929       C1052   1.613       .  S
C929       C1075   1.657       .  S
C930       C1022   1.641       .  S
C930       C1072   1.649       .  S
C932        O941   1.268       .  A
C932        O937   1.272       .  A
C932       C1125   1.482       .  S
O933       Cd936   2.471       .  S
C934        O942   1.262       .  A
C934       C1005   1.484       .  S
C935        O940   1.271       .  A
C935        O938   1.268       .  A
C935        C992   1.481       .  S
Cd936       O942   2.420       .  S
Cd936       O940   2.465       .  S
Cd936       O938   2.476       .  S
C939        O943   1.262   1_455  A
C939       C1015   1.483       .  S
O944       Cd949   2.493       .  S
C945        O954   1.267       .  A
C945        O950   1.270       .  A
C945        C985   1.480       .  S
C947        O955   1.263   1_455  A
C947       C1012   1.480       .  S
C948        O953   1.269       .  A
C948        O951   1.267       .  A
C948       C1045   1.479       .  S
Cd949       O956   2.380       .  S
Cd949       O954   2.452       .  S
Cd949       O950   2.462       .  S
C952        O956   1.265       .  A
C952       C1002   1.478       .  S
C957        C972   1.637       .  S
C957       C1055   1.651       .  S
C957       C1065   1.665       .  S
C957       C1162   1.592       .  S
C958        C975   1.668       .  S
C958        C982   1.600       .  S
C958       C1025   1.635       .  S
C958       C1032   1.665       .  S
C959        C962   1.630       .  S
C959        C995   1.590       .  S
C959       C1105   1.643       .  S
C959       C1112   1.670       .  S
C960        C965   1.657       .  S
C960       C1085   1.634       .  S
C960       C1095   1.621       .  S
C960       C1142   1.607       .  S
C961        C962   1.443       .  A
C961        C966   1.432       .  A
C961       Br968   1.913       .  S
C962        C963   1.427       .  A
C963        C964   1.416       .  A
C963       Br970   1.904       .  S
C964        C965   1.451       .  A
C964       Br969   1.953       .  S
C965        C966   1.445       .  A
C966       Br967   1.902       .  S
C971        C972   1.438       .  A
C971        C976   1.447   1_556  A
C971       Br978   1.951       .  S
C972        C973   1.453       .  A
C973        C974   1.429       .  A
C973       Br980   1.951       .  S
C974        C975   1.430   1_556  A
C974       Br979   1.931       .  S
C975        C976   1.472       .  A
C976       Br977   1.963       .  S
C981        C982   1.463       .  A
C981        C986   1.422       .  A
C981       Br988   1.939       .  S
C982        C983   1.453       .  A
C983        C984   1.407       .  A
C983       Br990   1.948       .  S
C984        C985   1.391       .  A
C984       Br989   1.929       .  S
C985        C986   1.394       .  A
C986       Br987   1.946       .  S
C991        C992   1.401       .  A
C991        C996   1.417       .  A
C991       Br998   1.933       .  S
C992        C993   1.398       .  A
C993        C994   1.411       .  A
C993      Br1000   1.939       .  S
C994        C995   1.456       .  A
C994       Br999   1.961       .  S
C995        C996   1.438       .  A
C996       Br997   1.930       .  S
C1001      C1002   1.406       .  A
C1001      C1006   1.403       .  A
C1001     Br1008   1.937       .  S
C1003      C1004   1.411       .  A
C1003     Br1010   1.932       .  S
C1004     Br1009   1.932       .  S
C1005      C1006   1.420       .  A
C1006     Br1007   1.934       .  S
C1011      C1016   1.403       .  A
C1011     Br1018   1.939       .  S
C1013      C1014   1.412       .  A
C1013     Br1020   1.931       .  S
C1014     Br1019   1.930       .  S
C1015      C1016   1.419   1_455  A
C1016     Br1017   1.935       .  S
C1021      C1022   1.412       .  A
C1021      C1026   1.406       .  A
C1021     Br1028   1.930       .  S
C1022      C1023   1.450       .  A
C1023      C1024   1.442       .  A
C1023     Br1030   1.948       .  S
C1024      C1025   1.441       .  A
C1024     Br1029   1.918       .  S
C1025      C1026   1.431       .  A
C1026     Br1027   1.898       .  S
C1031      C1032   1.454       .  A
C1031      C1036   1.429       .  A
C1031     Br1038   1.921       .  S
C1032      C1033   1.444       .  A
C1033      C1034   1.432       .  A
C1033     Br1040   1.868   1_554  S
C1034      C1035   1.431       .  A
C1034     Br1039   1.958   1_554  S
C1035      C1036   1.434       .  A
C1036     Br1037   1.948       .  S
C1041      C1042   1.451       .  A
C1041      C1046   1.419       .  A
C1042      C1043   1.439       .  A
C1043      C1044   1.396   1_565  A
C1043     Br1050   1.919       .  S
C1044      C1045   1.389   1_545  A
C1044     Br1049   1.925       .  S
C1045      C1046   1.396       .  A
C1046     Br1047   1.939       .  S
C1051      C1056   1.432       .  A
C1051     Br1058   1.940       .  S
C1052      C1053   1.443       .  A
C1053      C1054   1.430   1_655  A
C1053     Br1060   1.960       .  S
C1054     Br1059   1.954       .  S
C1055      C1056   1.444       .  A
C1056     Br1057   1.941       .  S
C1061      C1066   1.437       .  A
C1061     Br1068   1.930       .  S
C1062      C1063   1.447       .  A
C1063      C1064   1.440       .  A
C1063     Br1070   1.918       .  S
C1064     Br1069   1.911       .  S
C1065      C1066   1.439       .  A
C1066     Br1067   1.932       .  S
C1071      C1076   1.393       .  A
C1071     Br1078   1.897   1_556  S
C1072      C1073   1.450       .  A
C1073      C1074   1.446   1_554  A
C1073     Br1080   1.925       .  S
C1074      C1075   1.452       .  A
C1074     Br1079   1.950       .  S
C1076     Br1077   1.934       .  S
C1081      C1086   1.411       .  A
C1081     Br1088   1.918       .  S
C1082      C1083   1.430       .  A
C1083      C1084   1.430       .  A
C1083     Br1090   1.901       .  S
C1084     Br1089   1.960       .  S
C1085      C1086   1.454       .  A
C1086     Br1087   1.979       .  S
C1091      C1096   1.439       .  A
C1091     Br1098   1.914   1_565  S
C1092      C1093   1.416       .  A
C1093      C1094   1.421       .  A
C1093     Br1100   1.931       .  S
C1094     Br1099   1.910       .  S
C1095      C1096   1.424       .  A
C1096     Br1097   1.944       .  S
C1101      C1102   1.431       .  A
C1101      C1106   1.418       .  A
C1101     Br1108   1.932       .  S
C1102      C1103   1.412       .  A
C1103      C1104   1.407       .  A
C1103     Br1110   1.870       .  S
C1104      C1105   1.409       .  A
C1104     Br1109   1.900       .  S
C1105      C1106   1.451       .  A
C1106     Br1107   1.934       .  S
C1111      C1112   1.449       .  A
C1111      C1116   1.423       .  A
C1111     Br1118   1.896       .  S
C1112      C1113   1.461       .  A
C1113      C1114   1.454       .  A
C1113     Br1120   1.941       .  S
C1114      C1115   1.439       .  A
C1114     Br1119   1.941       .  S
C1115      C1116   1.419       .  A
C1116     Br1117   1.952       .  S
C1121      C1122   1.453       .  A
C1121      C1126   1.409       .  A
C1121     Br1128   1.925       .  S
C1123     Br1130   1.931       .  S
C1124      C1125   1.400       .  A
C1125      C1126   1.391       .  A
C1126     Br1127   1.953       .  S
C1131      C1136   1.450       .  A
C1131     Br1138   1.935       .  S
C1132      C1133   1.431       .  A
C1133      C1134   1.416   1_565  A
C1133     Br1140   1.941       .  S
C1134      C1135   1.438       .  A
C1134     Br1139   1.916       .  S
C1136     Br1137   1.931       .  S
C1141      C1142   1.453       .  A
C1141      C1146   1.423       .  A
C1141     Br1148   1.915       .  S
C1142      C1143   1.461       .  A
C1143      C1144   1.405       .  A
C1143     Br1150   1.923       .  S
C1144      C1145   1.391       .  A
C1144     Br1149   1.949       .  S
C1145      C1146   1.397       .  A
C1146     Br1147   1.943       .  S
C1151     Br1158   1.914       .  S
C1152      C1153   1.421       .  A
C1153      C1154   1.383       .  A
C1153     Br1160   1.907       .  S
C1154      C1155   1.397       .  A
C1154     Br1159   1.931       .  S
C1155      C1156   1.413       .  A
C1161      C1162   1.422       .  A
C1161      C1166   1.387       .  A
C1161     Br1168   1.897       .  S
C1162      C1163   1.446       .  A
C1163      C1164   1.423       .  A
C1163     Br1170   1.916       .  S
C1164      C1165   1.412       .  A
C1164     Br1169   1.933       .  S
C1165      C1166   1.398       .  A
C1166     Br1167   1.931       .  S
C1171      C1172   1.413       .  A
C1171      C1176   1.418   1_565  A
C1171     Br1178   1.938   1_565  S
C1172      C1173   1.403       .  A
C1173      C1174   1.406       .  A
C1173     Br1180   1.940       .  S
C1174      C1175   1.431       .  A
C1174     Br1179   1.914       .  S
C1175      C1176   1.435   1_565  A
C1181      C1182   1.411       .  A
C1181      C1186   1.405       .  A
C1181     Br1188   1.939       .  S
C1182      C1183   1.418       .  A
C1183      C1184   1.414       .  A
C1183     Br1190   1.931       .  S
C1184      C1185   1.411       .  A
C1184     Br1189   1.931       .  S
C1185      C1186   1.420       .  A
C1186     Br1187   1.937       .  S
C1191      C1196   1.401       .  A
C1191     Br1198   1.938       .  S
C1192      C1193   1.416       .  A
C1193      C1194   1.411       .  A
C1193     Br1200   1.932       .  S
C1194     Br1199   1.931       .  S
C1195      C1196   1.419       .  A
C1196     Br1197   1.932       .  S
