geometry optimzed in LAMMPS
_audit_creation_date              2020-11-30 
_audit_creation_method            'lammps2cif' 
_symmetry_space_group_name_H-M    'P1' 
_symmetry_Int_Tables_number       1 
_symmetry_cell_setting            triclinic 
loop_ 
_symmetry_equiv_pos_as_xyz 
  x,y,z 
_cell_length_a                    36.57295078 
_cell_length_b                    36.715168069911 
_cell_length_c                    36.55164893429272 
_cell_angle_alpha                 90.18059850740252 
_cell_angle_beta                  91.03414493987353 
_cell_angle_gamma                 91.48307746370081 
loop_ 
_atom_site_label 
_atom_site_type_symbol 
_atom_site_fract_x 
_atom_site_fract_y 
_atom_site_fract_z 
_atom_site_charge 
O1          O  0.53757994  0.04848207  0.85287535    -0.87000
O2          O  0.52317013  0.05678717  0.64765695    -0.87100
O3          O  0.60615987  0.04191832  0.74060877    -0.88800
O4          O  0.52391728  0.12358407  0.76053398    -0.87500
O5          O  0.46121952  0.12239557  0.76364661    -0.87100
O6          O  0.60799556  0.97969077  0.73538539    -0.88500
O7          O  0.55620312  0.09002820  0.69058614    -0.87000
O8          O  0.56911217  0.08103267  0.80956029    -0.86600
Zr9        Zr  0.54364403  0.06141411  0.75004108     2.84300
O10         O  0.48860261  0.06150613  0.71652421    -1.08500
O11         O  0.54633823  0.00788499  0.78492933    -1.09300
C12         C  0.56106284  0.07319327  0.84301357     1.06200
C13         C  0.54558397  0.08303115  0.65721995     1.06100
C14         C  0.62327699  0.01204782  0.73493758     1.09100
C15         C  0.49291963  0.13894560  0.76525171     1.06900
H16         H  0.56036198  0.01199289  0.69341765     0.32400
O17         O  0.54071693  0.01067060  0.71070927    -1.29500
H18         H  0.49488305  0.07799541  0.80642818     0.32100
O19         O  0.49398319  0.05760127  0.78969686    -1.31200
O20         O  0.43984156  0.96921515  0.64889613    -0.86900
O21         O  0.45675683  0.95870188  0.85469422    -0.88400
O22         O  0.55642316  0.93527317  0.68415174    -0.87000
O23         O  0.42055909  0.08824569  0.69919621    -0.87100
O24         O  0.42053620  0.07509520  0.81796721    -0.86800
O25         O  0.57337675  0.93990213  0.80372308    -0.86600
O26         O  0.45968001  0.89318438  0.75067121    -0.87000
O27         O  0.37668487  0.97412643  0.74890381    -0.86400
O28         O  0.52251114  0.89286012  0.75029185    -0.87500
O29         O  0.37572486  0.03664465  0.75073574    -0.86600
O30         O  0.52178292  0.96794060  0.64333297    -0.87000
O31         O  0.54235532  0.96577840  0.85104035    -0.86800
O32         O  0.45558826  0.04291815  0.85858501    -0.86400
O33         O  0.44357241  0.05535491  0.65157731    -0.86800
O34         O  0.41650565  0.93211560  0.69377188    -0.87100
O35         O  0.41889099  0.93264718  0.81068307    -0.88500
Zr36       Zr  0.48535465  0.01077838  0.67751027     2.83100
Zr37       Zr  0.49601458  0.00430060  0.82421709     2.83500
Zr38       Zr  0.54444594  0.95709038  0.74569802     2.84100
Zr39       Zr  0.43916026  0.05914264  0.75625591     2.83400
Zr40       Zr  0.43962725  0.95536148  0.75190450     2.84200
O41         O  0.44071242  0.00557319  0.79123989    -1.09000
O42         O  0.48903428  0.95761585  0.71230570    -1.08500
C43         C  0.41958409  0.94232495  0.66030332     1.06100
C44         C  0.43014014  0.93698923  0.84410466     1.08700
C45         C  0.54503849  0.94315679  0.65151574     1.06300
C46         C  0.42510677  0.08175753  0.66483827     1.06700
C47         C  0.43069539  0.06616511  0.85074078     1.06200
C48         C  0.56772343  0.94600074  0.83798846     1.05800
C49         C  0.49044036  0.87682982  0.75137980     1.06200
C50         C  0.36021600  0.00471826  0.74692502     1.05700
H51         H  0.49558133  0.93238556  0.80037348     0.32400
O52         O  0.49457661  0.95400885  0.78548532    -1.30100
H53         H  0.41445647  0.00874359  0.70183783     0.32400
O54         O  0.43633276  0.00857241  0.71692610    -1.31500
C55         C  0.65354092  0.20459307  0.50704390    -0.02900
O56         O  0.57366178  0.08913424  0.30901009    -0.87000
O57         O  0.43111477  0.93240946  0.30159272    -0.87100
O58         O  0.46391825  0.05240256  0.35273604    -0.88800
O59         O  0.54563986  0.96652984  0.34724465    -0.87500
O60         O  0.57154253  0.93565983  0.29974767    -0.87100
O61         O  0.43150978  0.08589859  0.31076798    -0.88500
O62         O  0.46223380  0.96202532  0.34845961    -0.87000
O63         O  0.54661016  0.05197572  0.35173609    -0.86600
Zr64       Zr  0.50266211  0.00944720  0.32068381     2.84300
O65         O  0.50123061  0.95964863  0.28000211    -1.08500
O66         O  0.50190431  0.06340141  0.28636171    -1.09300
C67         C  0.56831495  0.07876958  0.34235142     1.06200
C68         C  0.43929359  0.93717485  0.33577769     1.06100
C69         C  0.44121316  0.07755738  0.34378555     1.09100
C70         C  0.56612779  0.94166579  0.33409207     1.06900
H71         H  0.42849686  0.00886214  0.29993742     0.32400
O72         O  0.44932206  0.01021640  0.28407999    -1.29500
H73         H  0.57612168  0.01164347  0.29808959     0.32100
O74         O  0.55408662  0.01213714  0.28307427    -1.31200
O75         O  0.42730509  0.93933409  0.18328259    -0.86900
O76         O  0.57896019  0.08434257  0.19012478    -0.88400
O77         O  0.38447038  0.04195533  0.25327236    -0.87000
O78         O  0.53204475  0.90036442  0.23368341    -0.87100
O79         O  0.61603919  0.98399036  0.24436610    -0.86800
O80         O  0.47210147  0.12789820  0.24407871    -0.86600
O81         O  0.45546972  0.06469624  0.14667754    -0.87000
O82         O  0.53457046  0.97880262  0.13797579    -0.86400
O83         O  0.42220183  0.08863709  0.19331813    -0.87500
O84         O  0.56906956  0.94653432  0.17919758    -0.86600
O85         O  0.38400166  0.97960797  0.24746692    -0.87000
O86         O  0.53490318  0.12746014  0.24380128    -0.86800
O87         O  0.61674921  0.04643049  0.24831509    -0.86400
O88         O  0.46932854  0.89667998  0.23526777    -0.86800
O89         O  0.45387359  0.97632382  0.14007102    -0.87100
O90         O  0.54530645  0.05423129  0.14517469    -0.88500
Zr91       Zr  0.44769868  0.95984910  0.24387017     2.83100
Zr92       Zr  0.55333827  0.06565105  0.24876141     2.83500
Zr93       Zr  0.44814793  0.06470048  0.25016454     2.84100
Zr94       Zr  0.55204679  0.96304906  0.24189703     2.83400
Zr95       Zr  0.49603903  0.01825584  0.17252868     2.84200
O96         O  0.55016078  0.01661559  0.20811263    -1.09000
O97         O  0.44498558  0.01433607  0.21022079    -1.08500
C98         C  0.43323713  0.94916420  0.14997960     1.06100
C99         C  0.57225012  0.07503906  0.15649517     1.08700
C100        C  0.36784562  0.01035485  0.25177606     1.06300
C101        C  0.50126666  0.88260209  0.23097737     1.06700
C102        C  0.63259856  0.01544400  0.24690350     1.06200
C103        C  0.50417730  0.14336869  0.24038673     1.05800
C104        C  0.43068996  0.08578843  0.15928519     1.06200
C105        C  0.55917092  0.95554734  0.14626397     1.05700
H106        H  0.49986468  0.08863863  0.19704826     0.32400
O107        O  0.49950737  0.06736318  0.21247869    -1.30100
H108        H  0.49785850  0.94421163  0.18947002     0.32400
O109        O  0.49830597  0.96450324  0.20631127    -1.31500
C110        C  0.30068648  0.85307956  0.99864764    -0.02900
C111        C  0.68086036  0.85084240  0.00024669    -0.02900
C112        C  0.65238677  0.82760349  0.50147094    -0.02900
C113        C  0.30486202  0.16667315  0.99877868    -0.02900
C114        C  0.69369883  0.16399885  0.99719880    -0.02900
C115        C  0.34001332  0.19622970  0.49658634    -0.02900
C116        C  0.34611052  0.81664798  0.49754085    -0.02900
O117        O  0.88327362  0.76789512  0.45773792    -0.87000
O118        O  0.02369712  0.76699525  0.61364781    -0.87100
O119        O  0.92110262  0.70466347  0.56342796    -0.88800
O120        O  0.92196031  0.82293525  0.56876283    -0.87500
O121        O  0.95081562  0.87016923  0.53898089    -0.87100
O122        O  0.95855882  0.66344965  0.53641001    -0.88500
O123        O  0.96092777  0.76198544  0.61011093    -0.87000
O124        O  0.87970710  0.76845382  0.52042543    -0.86600
Zr125      Zr  0.94271151  0.76537153  0.54524366     2.84300
O126        O  0.99240508  0.80727883  0.54797494    -1.08500
O127        O  0.94711297  0.72772212  0.49375689    -1.09300
C128        C  0.86528190  0.77071328  0.48783736     1.06200
C129        C  0.99177534  0.76227514  0.62804280     1.06100
C130        C  0.93134402  0.67197878  0.55639786     1.09100
C131        C  0.92837006  0.85718069  0.56324535     1.06900
H132        H  0.99736708  0.71735576  0.57035179     0.32400
O133        O  0.99702432  0.73282009  0.54902972    -1.29500
H134        H  0.92231348  0.81530608  0.49058010     0.32100
O135        O  0.94395077  0.80085323  0.49195818    -1.31200
O136        O  0.10998206  0.78072902  0.53263170    -0.86900
O137        O  0.97142917  0.75472314  0.37750062    -0.88400
O138        O  0.04651187  0.67094511  0.54079789    -0.87000
O139        O  0.03764773  0.87674993  0.53371407    -0.87100
O140        O  0.95048040  0.86563566  0.44769185    -0.86800
O141        O  0.95877590  0.65976278  0.45778012    -0.86600
O142        O  0.08049323  0.71456522  0.43122307    -0.87000
O143        O  0.06830953  0.83296890  0.42178793    -0.86400
O144        O  0.04973666  0.66921582  0.46227186    -0.87500
O145        O  0.03205567  0.87416941  0.45046491    -0.86600
O146        O  0.07678383  0.71943556  0.56862202    -0.87000
O147        O  0.92218693  0.70129515  0.42915826    -0.86800
O148        O  0.92566295  0.81796764  0.41370903    -0.86400
O149        O  0.06501070  0.83554015  0.57190051    -0.86800
O150        O  0.11371920  0.78113009  0.46993804    -0.87100
O151        O  0.03374424  0.76370475  0.38075834    -0.88500
Zr152      Zr  0.04644685  0.77468732  0.55089520     2.83100
Zr153      Zr  0.94752338  0.76246506  0.44030987     2.83500
Zr154      Zr  0.00145088  0.69558769  0.49747491     2.84100
Zr155      Zr  0.99300446  0.84273451  0.49453660     2.83400
Zr156      Zr  0.05140882  0.77229762  0.44542485     2.84200
O157        O  0.99696270  0.80450013  0.44276483    -1.09000
O158        O  0.05046123  0.73764556  0.49909365    -1.08500
C159        C  0.12796729  0.78289666  0.50257564     1.06100
C160        C  0.00359644  0.75628327  0.36279518     1.08700
C161        C  0.07199769  0.68516591  0.56181450     1.06300
C162        C  0.05997276  0.86817893  0.56006715     1.06700
C163        C  0.92990741  0.85206533  0.42147951     1.06200
C164        C  0.93070265  0.66848242  0.43783806     1.05800
C165        C  0.07530565  0.68105228  0.44117424     1.06200
C166        C  0.05676708  0.86555745  0.42727231     1.05700
H167        H  0.00348089  0.71333693  0.42315716     0.32400
O168        O  0.00181302  0.72993768  0.44357667    -1.30100
H169        H  0.06744972  0.82669749  0.49777955     0.32400
O170        O  0.04679959  0.80980397  0.49732688    -1.31500
O171        O  0.88293942  0.25987300  0.53314946    -0.87000
O172        O  0.02122642  0.27202054  0.37893981    -0.87100
O173        O  0.91807184  0.32674764  0.42741443    -0.88800
O174        O  0.91817038  0.20877850  0.42495527    -0.87500
O175        O  0.94858256  0.16567871  0.45798513    -0.87100
O176        O  0.95064778  0.37083473  0.45974390    -0.88500
O177        O  0.95868708  0.26820745  0.38268950    -0.87000
O178        O  0.88076858  0.26360478  0.47032422    -0.86600
Zr179      Zr  0.94177750  0.26798719  0.44673550     2.84300
O180        O  0.99308889  0.23188408  0.44442285    -1.08500
O181        O  0.94453039  0.30368189  0.50002146    -1.09300
C182        C  0.86579747  0.25950637  0.50172897     1.06200
C183        C  0.98857468  0.27071931  0.36449840     1.06100
C184        C  0.92521024  0.36017906  0.43681531     1.09100
C185        C  0.92432573  0.17552816  0.43419532     1.06900
H186        H  0.99231884  0.32119871  0.42342928     0.32400
O187        O  0.99386508  0.30576880  0.44469176    -1.29500
H188        H  0.92225854  0.21579339  0.49999472     0.32100
O189        O  0.94357656  0.23179874  0.49938066    -1.31200
O190        O  0.11039273  0.26523791  0.45942937    -0.86900
O191        O  0.97519439  0.27017729  0.61465445    -0.88400
O192        O  0.03417990  0.37178789  0.45280263    -0.87000
O193        O  0.03073184  0.16531876  0.45167127    -0.87100
O194        O  0.95064953  0.16485691  0.53873121    -0.86800
O195        O  0.95430013  0.37006092  0.53937081    -0.86600
O196        O  0.08084426  0.33120169  0.56204597    -0.87000
O197        O  0.06590902  0.21065842  0.57364889    -0.86400
O198        O  0.04448839  0.37290156  0.53361014    -0.87500
O199        O  0.03098852  0.16705838  0.54284903    -0.86600
O200        O  0.06660811  0.33010904  0.42064033    -0.87000
O201        O  0.92400638  0.32523897  0.57164389    -0.86800
O202        O  0.92721006  0.20812485  0.57651068    -0.86400
O203        O  0.05866068  0.20971585  0.41678144    -0.86800
O204        O  0.11500666  0.26234707  0.52214291    -0.87100
O205        O  0.03799331  0.27264693  0.61241128    -0.88500
Zr206      Zr  0.04570576  0.26962180  0.44205210     2.83100
Zr207      Zr  0.94775565  0.26733192  0.55267402     2.83500
Zr208      Zr  0.99667494  0.34136012  0.49785598     2.84100
Zr209      Zr  0.99426165  0.19587343  0.49715143     2.83400
Zr210      Zr  0.05329489  0.27022155  0.54723123     2.84200
O211        O  0.00005821  0.23279144  0.54920160    -1.09000
O212        O  0.04923730  0.30639069  0.49471563    -1.08500
C213        C  0.12889668  0.26156992  0.48966488     1.06100
C214        C  0.00749225  0.27222910  0.62995113     1.08700
C215        C  0.05726299  0.36309191  0.42817343     1.06300
C216        C  0.05050623  0.17623042  0.42470129     1.06700
C217        C  0.93032043  0.17485077  0.56556515     1.06200
C218        C  0.93013125  0.35860612  0.56231639     1.05800
C219        C  0.07268825  0.36434032  0.55329335     1.06200
C220        C  0.05359057  0.17769676  0.56821464     1.05700
H221        H  0.00207193  0.32152397  0.57169069     0.32400
O222        O  0.00053981  0.30565705  0.55054918    -1.30100
H223        H  0.06842648  0.21651705  0.49375453     0.32400
O224        O  0.04798119  0.23258548  0.49475389    -1.31500
C225        C  0.81068394  0.51455664  0.65239673    -0.02900
C226        C  0.19209269  0.52636981  0.65213355    -0.02900
C227        C  0.84574243  0.01755730  0.30601370    -0.02900
C228        C  0.84027870  0.01651055  0.68888638    -0.02900
C229        C  0.80534001  0.51163030  0.33594318    -0.02900
C230        C  0.18262742  0.52208781  0.34085675    -0.02900
C231        C  0.15506876  0.02493688  0.30894266    -0.02900
C232        C  0.14858328  0.02546870  0.69061236    -0.02900
O233        O  0.72885460  0.62029691  0.95387719    -0.87000
O234        O  0.73896699  0.48095573  0.10619040    -0.87100
O235        O  0.68195836  0.58700705  0.06220725    -0.88800
O236        O  0.80129591  0.58311619  0.05517938    -0.87500
O237        O  0.84220124  0.54728616  0.02531220    -0.87100
O238        O  0.63462746  0.55909120  0.02978982    -0.88500
O239        O  0.74425436  0.54334715  0.10559726    -0.87000
O240        O  0.73321362  0.62414932  0.01658075    -0.86600
Zr241      Zr  0.73939201  0.56228016  0.04073156     2.84300
O242        O  0.77370025  0.50927334  0.03964491    -1.08500
O243        O  0.70145035  0.56054191  0.98894964    -1.09300
C244        C  0.72809865  0.63797704  0.98437037     1.06200
C245        C  0.74311775  0.51214970  0.12225258     1.06100
C246        C  0.64771635  0.58263581  0.05325687     1.09100
C247        C  0.83377740  0.57362323  0.04671812     1.06900
H248        H  0.68517411  0.51392936  0.06602483     0.32400
O249        O  0.69922136  0.51218368  0.04398832    -1.29500
H250        H  0.78845891  0.58107328  0.98514807     0.32100
O251        O  0.77273613  0.55957725  0.98630607    -1.31200
O252        O  0.71701086  0.39672675  0.02541697    -0.86900
O253        O  0.73937836  0.53224012  0.87290085    -0.88400
O254        O  0.63164454  0.47368423  0.03672066    -0.87000
O255        O  0.83624147  0.46196260  0.02486229    -0.87100
O256        O  0.83587135  0.55182382  0.94192197    -0.86800
O257        O  0.63190882  0.55625636  0.95502937    -0.86600
O258        O  0.66382967  0.43870391  0.91527662    -0.87000
O259        O  0.78289524  0.42454779  0.92331145    -0.86400
O260        O  0.62514205  0.47179583  0.95016897    -0.87500
O261        O  0.83131407  0.46075130  0.94411989    -0.86600
O262        O  0.67411554  0.44298926  0.07053130    -0.87000
O263        O  0.67473935  0.58017880  0.91614669    -0.86800
O264        O  0.79072321  0.58482626  0.91445663    -0.86400
O265        O  0.79257761  0.43366583  0.06031647    -0.86800
O266        O  0.71300257  0.39454553  0.96258072    -0.87100
O267        O  0.73469412  0.46993325  0.87628045    -0.88500
Zr268      Zr  0.73307288  0.45900073  0.04372089     2.83100
Zr269      Zr  0.73379148  0.55760111  0.93479519     2.83500
Zr270      Zr  0.66078054  0.51157584  0.99198927     2.84100
Zr271      Zr  0.80699152  0.50662835  0.98500079     2.83400
Zr272      Zr  0.72602478  0.45448859  0.93913002     2.84200
O273        O  0.76710483  0.50444566  0.93454925    -1.09000
O274        O  0.69314574  0.45806329  0.99301767    -1.08500
C275        C  0.71047358  0.38041857  0.99457824     1.06100
C276        C  0.74054983  0.49980901  0.85889951     1.08700
C277        C  0.64097897  0.45198649  0.06263073     1.06300
C278        C  0.82575620  0.43843106  0.04912143     1.06700
C279        C  0.82463622  0.57798491  0.92066502     1.06200
C280        C  0.64222171  0.57741483  0.92913576     1.05800
C281        C  0.63140225  0.44850342  0.92449894     1.06200
C282        C  0.81746109  0.43240973  0.92734604     1.05700
H283        H  0.67669403  0.50833298  0.91586584     0.32400
O284        O  0.69279596  0.50799551  0.93713937    -1.30100
H285        H  0.77929420  0.43349769  0.99028047     0.32400
O286        O  0.76620437  0.45597799  0.98971080    -1.31500
O287        O  0.25843308  0.61708020  0.96376585    -0.87000
O288        O  0.23592277  0.47623172  0.11537624    -0.87100
O289        O  0.19675143  0.58623722  0.07601355    -0.88800
O290        O  0.31441182  0.57045172  0.07113381    -0.87500
O291        O  0.35209523  0.53374940  0.03857919    -0.87100
O292        O  0.14710337  0.55799048  0.04746712    -0.88500
O293        O  0.24845166  0.53802978  0.11427389    -0.87000
O294        O  0.26163782  0.62093563  0.02644286    -0.86600
Zr295      Zr  0.25105230  0.55872589  0.05058968     2.84300
O296        O  0.27975516  0.50253465  0.05008512    -1.08500
O297        O  0.21132795  0.56095453  0.99959771    -1.09300
C298        C  0.26392138  0.63499794  0.99395958     1.06200
C299        C  0.24133415  0.50757589  0.13075547     1.06100
C300        C  0.16197438  0.58095582  0.07057098     1.09100
C301        C  0.34620143  0.55818391  0.06318500     1.06900
H302        H  0.19242678  0.51246989  0.07580483     0.32400
O303        O  0.20698273  0.51081566  0.05411581    -1.29500
H304        H  0.30285097  0.57166824  0.99517670     0.32100
O305        O  0.28437209  0.55243159  0.99662037    -1.31200
O306        O  0.23670547  0.39078755  0.03537928    -0.86900
O307        O  0.23169895  0.53198094  0.88358750    -0.88400
O308        O  0.13349910  0.46998612  0.04178159    -0.87000
O309        O  0.34015191  0.45502717  0.04135381    -0.87100
O310        O  0.34602736  0.53187258  0.95008451    -0.86800
O311        O  0.14290497  0.55853664  0.96253263    -0.86600
O312        O  0.16680422  0.43299845  0.93754137    -0.87000
O313        O  0.28503245  0.42304689  0.92586707    -0.86400
O314        O  0.12890607  0.47206174  0.96719077    -0.87500
O315        O  0.33429278  0.44700481  0.95864055    -0.86600
O316        O  0.17526960  0.43093161  0.06628910    -0.87000
O317        O  0.18813701  0.58433333  0.92748788    -0.86800
O318        O  0.30444433  0.56647299  0.91894858    -0.86400
O319        O  0.29294144  0.43387303  0.07681081    -0.86800
O320        O  0.23395765  0.38762578  0.97260886    -0.87100
O321        O  0.22313217  0.46988973  0.88584348    -0.88500
Zr322      Zr  0.23600874  0.45488066  0.05271663     2.83100
Zr323      Zr  0.24449946  0.55427848  0.94563901     2.83500
Zr324      Zr  0.16790237  0.51306081  0.00348404     2.84100
Zr325      Zr  0.31372695  0.49670156  0.99681050     2.83400
Zr326      Zr  0.23059934  0.45072108  0.94946376     2.84200
O327        O  0.27435402  0.49847897  0.94534559    -1.09000
O328        O  0.19675056  0.45697795  0.00243926    -1.08500
C329        C  0.23737066  0.37310333  0.00480147     1.06100
C330        C  0.22377862  0.50068549  0.86869455     1.08700
C331        C  0.14233293  0.44086305  0.05930958     1.06300
C332        C  0.32685305  0.43704444  0.06860855     1.06700
C333        C  0.33718739  0.55521464  0.92517624     1.06200
C334        C  0.15476517  0.58134066  0.93834808     1.05800
C335        C  0.13504216  0.44444659  0.94649141     1.06200
C336        C  0.31933209  0.42487403  0.93489433     1.05700
H337        H  0.18357794  0.50769175  0.92946358     0.32400
O338        O  0.20084435  0.50670293  0.94972553    -1.30100
H339        H  0.28370989  0.42733113  0.00097231     0.32400
O340        O  0.27033808  0.44960496  0.00011104    -1.31500
C341        C  0.99784937  0.69546596  0.83956742    -0.02900
C342        C  0.98316334  0.31712704  0.84574003    -0.02900
C343        C  0.48875069  0.66295605  0.80294832    -0.02900
C344        C  0.49997366  0.66508202  0.18831657    -0.02900
C345        C  0.97958775  0.31989960  0.14889857    -0.02900
C346        C  0.99195516  0.69150233  0.14905682    -0.02900
C347        C  0.46723181  0.35477201  0.79853680    -0.02900
C348        C  0.48873912  0.35340909  0.18636368    -0.02900
O349        O  0.55851042  0.42258461  0.54645822    -0.87000
O350        O  0.46329353  0.50188298  0.37888187    -0.87100
O351        O  0.47934537  0.39797551  0.45862518    -0.88800
O352        O  0.57953441  0.46065776  0.42394580    -0.87500
O353        O  0.59999151  0.51939200  0.43450202    -0.87100
O354        O  0.43105304  0.41159801  0.49502517    -0.88500
O355        O  0.49965461  0.45349463  0.39207883    -0.87000
O356        O  0.55157403  0.40619157  0.48593169    -0.86600
Zr357      Zr  0.51928436  0.45339525  0.45491904     2.84300
O358        O  0.51933080  0.51368014  0.43548509    -1.08500
O359        O  0.49572310  0.45081977  0.51377010    -1.09300
C360        C  0.56081389  0.39984752  0.51934306     1.06200
C361        C  0.47994279  0.47249051  0.37016756     1.06100
C362        C  0.44953754  0.38944226  0.47583021     1.09100
C363        C  0.60304418  0.48763928  0.42015088     1.06900
H364        H  0.44343324  0.46084131  0.43883726     0.32400
O365        O  0.45922601  0.47535192  0.45490097    -1.29500
H366        H  0.58191603  0.47831870  0.49427369     0.32100
O367        O  0.55757424  0.48791951  0.49422554    -1.31200
O368        O  0.43543578  0.59843273  0.44297240    -0.86900
O369        O  0.53070994  0.51889624  0.61069879    -0.88400
O370        O  0.38167654  0.47907214  0.47681641    -0.87000
O371        O  0.55345484  0.57977310  0.41350501    -0.87100
O372        O  0.61101870  0.54566793  0.51490511    -0.86800
O373        O  0.43916077  0.43975358  0.57172061    -0.86600
O374        O  0.41480804  0.56488164  0.55917040    -0.87000
O375        O  0.51680473  0.62338280  0.53314989    -0.86400
O376        O  0.39232721  0.50669508  0.54866925    -0.87500
O377        O  0.56358585  0.61128396  0.49435050    -0.86600
O378        O  0.39619780  0.51975843  0.43169172    -0.87000
O379        O  0.49804556  0.44673575  0.59421841    -0.86800
O380        O  0.59679105  0.50489878  0.56044595    -0.86400
O381        O  0.49383078  0.57183694  0.39411574    -0.86800
O382        O  0.44525662  0.61600787  0.50286566    -0.87100
O383        O  0.49717583  0.56928890  0.59697953    -0.88500
Zr384      Zr  0.46020264  0.53643715  0.43640362     2.83100
Zr385      Zr  0.53373716  0.48451102  0.55335222     2.83500
Zr386      Zr  0.43688107  0.47389868  0.51457380     2.84100
Zr387      Zr  0.55780111  0.54870808  0.47374928     2.83400
Zr388      Zr  0.47689072  0.56856818  0.53398943     2.84200
O389        O  0.53578921  0.54534535  0.53353315    -1.09000
O390        O  0.43775966  0.53436757  0.49538632    -1.08500
C391        C  0.43452645  0.62170349  0.46977814     1.06100
C392        C  0.51551829  0.54914735  0.61908566     1.08700
C393        C  0.37349502  0.49897681  0.44893918     1.06300
C394        C  0.52685651  0.58322550  0.38982255     1.06700
C395        C  0.61868958  0.52733087  0.54407537     1.06200
C396        C  0.46482344  0.43438230  0.59565926     1.05800
C397        C  0.38953223  0.53954779  0.56043117     1.06200
C398        C  0.54596145  0.63260357  0.51545561     1.05700
H399        H  0.46470573  0.50755113  0.57857483     0.32400
O400        O  0.47470906  0.50830594  0.55430907    -1.30100
H401        H  0.50066939  0.59602553  0.46567066     0.32400
O402        O  0.49915125  0.57134690  0.47450676    -1.31500
O403        O  0.08019895  0.93963820  0.05119921    -0.87000
O404        O  0.00505859  0.04367908  0.88596082    -0.87100
O405        O  0.04505129  0.92246858  0.92787178    -0.88800
O406        O  0.10829121  0.01985441  0.96246083    -0.87500
O407        O  0.09584122  0.06931597  0.99847052    -0.87100
O408        O  0.98670787  0.90200282  0.93925843    -0.88500
O409        O  0.05313856  0.00663470  0.89830855    -0.87000
O410        O  0.09580376  0.94441692  0.99074975    -0.86600
Zr411      Zr  0.05215763  0.98247657  0.95972567     2.84300
O412        O  0.03054177  0.04225080  0.96166758    -1.08500
O413        O  0.01699862  0.94565053  0.99764013    -1.09300
C414        C  0.10143874  0.93382969  0.02391522     1.06200
C415        C  0.03478492  0.02785035  0.87718297     1.06100
C416        C  0.01852989  0.89819096  0.92572393     1.09100
C417        C  0.11705833  0.05040180  0.97838519     1.06900
H418        H  0.99085024  0.97379509  0.91346849     0.32400
O419        O  0.99176918  0.98286416  0.93831078    -1.29500
H420        H  0.08097204  0.00617420  0.02871258     0.32100
O421        O  0.05595965  0.00576580  0.01975089    -1.31200
O422        O  0.90929116  0.06932171  0.94944549    -0.86900
O423        O  0.98279761  0.96650547  0.11277671    -0.88400
O424        O  0.92453290  0.95026436  0.91541941    -0.87000
O425        O  0.02872197  0.12026106  0.98350062    -0.87100
O426        O  0.06571422  0.06314750  0.08159832    -0.86800
O427        O  0.96529462  0.88972275  0.01311199    -0.86600
O428        O  0.88329562  0.98824062  0.03465424    -0.87000
O429        O  0.94498421  0.08772884  0.06927886    -0.86400
O430        O  0.89536792  0.94016449  0.99686228    -0.87500
O431        O  0.00324187  0.10929841  0.05857953    -0.86600
O432        O  0.93030615  0.01010577  0.89799725    -0.87000
O433        O  0.00571013  0.90422682  0.06020954    -0.86800
O434        O  0.05648389  0.00427160  0.10014075    -0.86400
O435        O  0.98709069  0.10573551  0.93775060    -0.86800
O436        O  0.89418497  0.06252857  0.00975748    -0.87100
O437        O  0.93525864  0.00491144  0.10169091    -0.88500
Zr438      Zr  0.96934428  0.04209160  0.94164681     2.83100
Zr439      Zr  0.02053276  0.96824325  0.05742353     2.83500
Zr440      Zr  0.95667936  0.94545240  0.97609655     2.84100
Zr441      Zr  0.03417555  0.06527748  0.02156033     2.83400
Zr442      Zr  0.93892884  0.02672971  0.03962053     2.84200
O443        O  0.99949027  0.02774810  0.06032946    -1.09000
O444        O  0.93449508  0.00445601  0.97942258    -1.08500
C445        C  0.88811779  0.07364994  0.97703919     1.06100
C446        C  0.95339030  0.98294278  0.12202018     1.08700
C447        C  0.91881358  0.97704765  0.89291417     1.06300
C448        C  0.00873218  0.12828122  0.95513816     1.06700
C449        C  0.06909210  0.03698350  0.10500020     1.06200
C450        C  0.98544938  0.88168176  0.04142190     1.05800
C451        C  0.87417868  0.95860431  0.01709984     1.06200
C452        C  0.97101031  0.11249829  0.07175106     1.05700
H453        H  0.94521001  0.95104850  0.05197183     0.32400
O454        O  0.95978010  0.96698460  0.03670944    -1.30100
H455        H  0.96355960  0.08869520  0.00160937     0.32400
O456        O  0.97322084  0.06448729  0.00131739    -1.31500
C457        C  0.48780210  0.37210292  0.22432232    -0.05700
C458        C  0.49461045  0.35214578  0.25671008    -0.05600
C459        C  0.49220402  0.36809646  0.29080919    -0.23800
C460        C  0.48470826  0.40490079  0.29383700     0.18400
C461        C  0.48083442  0.42658655  0.26233446     0.15600
C462        C  0.48316434  0.41018812  0.22765659    -0.18800
C463        C  0.47442184  0.46402082  0.26641747    -0.20700
C464        C  0.47235793  0.47951786  0.30152185    -0.13200
C465        C  0.47683351  0.45768594  0.33269442     0.03500
C466        C  0.48210486  0.42028864  0.32832569    -0.25400
H467        H  0.50206118  0.32386908  0.25633164     0.08500
H468        H  0.49659138  0.35155883  0.31494359     0.12100
H469        H  0.48018810  0.42669303  0.20331997     0.12100
H470        H  0.47128016  0.48124319  0.24261209     0.11800
H471        H  0.46811234  0.50840364  0.30424042     0.12400
H472        H  0.48504990  0.40291152  0.35211074     0.14300
C473        C  0.46615313  0.37454617  0.76111096    -0.05700
C474        C  0.46241738  0.41277277  0.76074987    -0.05600
C475        C  0.45763849  0.43162245  0.72804206    -0.23800
C476        C  0.45720856  0.41290943  0.69466199     0.18400
C477        C  0.46199830  0.37487049  0.69413699     0.15600
C478        C  0.46745485  0.35619425  0.72706921    -0.18800
C479        C  0.46207789  0.35621110  0.66053086    -0.20700
C480        C  0.45941160  0.37543712  0.62771712    -0.13200
C481        C  0.45635519  0.41335423  0.62827312     0.03500
C482        C  0.45419302  0.43189759  0.66166655    -0.25400
H483        H  0.46195147  0.42791560  0.78620712     0.08500
H484        H  0.45444406  0.46088056  0.72887234     0.12100
H485        H  0.47278825  0.32743168  0.72561245     0.12100
H486        H  0.46559176  0.32700978  0.65961367     0.11800
H487        H  0.46199743  0.36107717  0.60198376     0.12400
H488        H  0.45269095  0.46137849  0.66186088     0.14300
C489        C  0.98809250  0.84367735  0.05333011    -0.05700
C490        C  0.02159553  0.82665745  0.04857791    -0.05600
C491        C  0.02973134  0.79500628  0.06768300    -0.23800
C492        C  0.00449858  0.77987285  0.09208466     0.18400
C493        C  0.97028225  0.79615293  0.09646847     0.15600
C494        C  0.96220290  0.82812239  0.07698335    -0.18800
C495        C  0.94554029  0.78095877  0.12138847    -0.20700
C496        C  0.95385061  0.74892294  0.14019610    -0.13200
C497        C  0.98678714  0.73073068  0.13394758     0.03500
C498        C  0.01313536  0.74866988  0.11206163    -0.25400
H499        H  0.04227075  0.83898479  0.03133295     0.08500
H500        H  0.05608964  0.78281536  0.06395908     0.12100
H501        H  0.93687953  0.84195327  0.08171723     0.12100
H502        H  0.91946420  0.79343914  0.12583191     0.11800
H503        H  0.93344683  0.73692917  0.15790581     0.12400
H504        H  0.04023747  0.73799625  0.10933670     0.14300
C505        C  0.98249950  0.28019813  0.13417515    -0.05700
C506        C  0.01595117  0.26228650  0.13895739    -0.05600
C507        C  0.01970523  0.22594506  0.12875375    -0.23800
C508        C  0.98977642  0.20566143  0.11454387     0.18400
C509        C  0.95548610  0.22207271  0.11080241     0.15600
C510        C  0.95196920  0.25909674  0.12061334    -0.18800
C511        C  0.92539310  0.20100070  0.09736051    -0.20700
C512        C  0.92964755  0.16451679  0.08666038    -0.13200
C513        C  0.96409092  0.14843818  0.08911147     0.03500
C514        C  0.99382934  0.16923547  0.10379382    -0.25400
H515        H  0.03954100  0.27673430  0.15073977     0.08500
H516        H  0.04611467  0.21358542  0.13229961     0.12100
H517        H  0.92518011  0.27079400  0.11853400     0.12100
H518        H  0.89872531  0.21294505  0.09440859     0.11800
H519        H  0.90639744  0.14942608  0.07499082     0.12400
H520        H  0.02057310  0.15726548  0.10603562     0.14300
C521        C  0.49961623  0.64530126  0.22600029    -0.05700
C522        C  0.47701001  0.61444045  0.23309037    -0.05600
C523        C  0.48072209  0.59516407  0.26557138    -0.23800
C524        C  0.50607360  0.60682712  0.29246827     0.18400
C525        C  0.52693407  0.63907669  0.28769184     0.15600
C526        C  0.52289498  0.65855588  0.25500988    -0.18800
C527        C  0.55153881  0.65100491  0.31564427    -0.20700
C528        C  0.55409153  0.63175560  0.34874674    -0.13200
C529        C  0.53238969  0.60023942  0.35377650     0.03500
C530        C  0.50971484  0.58729506  0.32477206    -0.25400
H531        H  0.45645283  0.60432304  0.21392886     0.08500
H532        H  0.46357614  0.57104848  0.26968712     0.12100
H533        H  0.53968223  0.68293994  0.25103432     0.12100
H534        H  0.56793146  0.67572622  0.31231582     0.11800
H535        H  0.57143916  0.64237655  0.37081942     0.12400
H536        H  0.49306577  0.56276395  0.32824091     0.14300
C537        C  0.48918613  0.64660058  0.76332206    -0.05700
C538        C  0.49979545  0.66832621  0.73300002    -0.05600
C539        C  0.50880945  0.65297440  0.69973973    -0.23800
C540        C  0.50910537  0.61533456  0.69558910     0.18400
C541        C  0.49894498  0.59253976  0.72472401     0.15600
C542        C  0.48816941  0.60818219  0.75778376    -0.18800
C543        C  0.50018822  0.55446185  0.72029661    -0.20700
C544        C  0.50921450  0.53946960  0.68640678    -0.13200
C545        C  0.51726073  0.56250102  0.65691086     0.03500
C546        C  0.51881460  0.60028367  0.66227523    -0.25400
H547        H  0.50465211  0.69728536  0.73477490     0.08500
H548        H  0.51711278  0.67074069  0.67758113     0.12100
H549        H  0.48150541  0.58973752  0.77943300     0.12100
H550        H  0.49289042  0.53636784  0.74251774     0.11800
H551        H  0.50743552  0.51020160  0.68257477     0.12400
H552        H  0.52532356  0.61813192  0.63955135     0.14300
C553        C  0.98339894  0.27989971  0.86583983    -0.05700
C554        C  0.95330788  0.25547503  0.86107776    -0.05600
C555        C  0.95164981  0.22231542  0.87959080    -0.23800
C556        C  0.98081458  0.21175300  0.90216208     0.18400
C557        C  0.01214615  0.23462997  0.90605985     0.15600
C558        C  0.01350073  0.26815668  0.88760657    -0.18800
C559        C  0.04175021  0.22331267  0.92802239    -0.20700
C560        C  0.04048888  0.18923049  0.94528017    -0.13200
C561        C  0.00964764  0.16598013  0.94072476     0.03500
C562        C  0.97959779  0.17796992  0.91976661    -0.25400
H563        H  0.93042110  0.26267241  0.84357821     0.08500
H564        H  0.92764875  0.20467891  0.87585745     0.12100
H565        H  0.03847501  0.28443272  0.89004378     0.12100
H566        H  0.06606440  0.24057445  0.93141008     0.11800
H567        H  0.06397392  0.18063003  0.96119977     0.12400
H568        H  0.95539161  0.16052400  0.91632184     0.14300
C569        C  0.99772202  0.73227697  0.86111158    -0.05700
C570        C  0.97473730  0.73819605  0.89106178    -0.05600
C571        C  0.97584707  0.77126079  0.90996887    -0.23800
C572        C  0.00022980  0.79935298  0.89999180     0.18400
C573        C  0.02501081  0.79383546  0.87167109     0.15600
C574        C  0.02430919  0.76008449  0.85318067    -0.18800
C575        C  0.04959341  0.82238143  0.86220731    -0.20700
C576        C  0.04872311  0.85640119  0.88008427    -0.13200
C577        C  0.02335332  0.86220408  0.90775446     0.03500
C578        C  0.99988220  0.83297956  0.91796202    -0.25400
H579        H  0.95643064  0.71722968  0.90114771     0.08500
H580        H  0.95740257  0.77488933  0.93249854     0.12100
H581        H  0.04374511  0.75565388  0.83167284     0.12100
H582        H  0.06897084  0.81861980  0.84053496     0.11800
H583        H  0.06712626  0.87827263  0.87171607     0.12400
H584        H  0.98061714  0.83647968  0.93983248     0.14300
C585        C  0.10330015  0.42339315  0.93251952    -0.05700
C586        C  0.07561965  0.41212357  0.95636099    -0.05600
C587        C  0.04760974  0.38840111  0.94401548    -0.23800
C588        C  0.04664280  0.37645022  0.90750033     0.18400
C589        C  0.07350727  0.38906538  0.88307056     0.15600
C590        C  0.10200910  0.41210445  0.89586752    -0.18800
C591        C  0.07139303  0.37851495  0.84625914    -0.20700
C592        C  0.04291138  0.35548321  0.83358084    -0.13200
C593        C  0.01671663  0.34107545  0.85787473     0.03500
C594        C  0.01912282  0.35225373  0.89500004    -0.25400
H595        H  0.07651269  0.42051807  0.98482411     0.08500
H596        H  0.02694285  0.37919667  0.96301435     0.12100
H597        H  0.12329904  0.42116317  0.87745603     0.12100
H598        H  0.09137683  0.38873758  0.82704145     0.11800
H599        H  0.04138881  0.35014918  0.80458299     0.12400
H600        H  0.99882454  0.34237641  0.91410014     0.14300
C601        C  0.00814495  0.34724381  0.13246214    -0.05700
C602        C  0.00888629  0.38366113  0.14543627    -0.05600
C603        C  0.03444304  0.40943610  0.13314935    -0.23800
C604        C  0.05984177  0.39995431  0.10693846     0.18400
C605        C  0.05851800  0.36434692  0.09195655     0.15600
C606        C  0.03225030  0.33856973  0.10406753    -0.18800
C607        C  0.08403931  0.35493438  0.06557612    -0.20700
C608        C  0.11123046  0.38010912  0.05519904    -0.13200
C609        C  0.11281315  0.41538274  0.07024537     0.03500
C610        C  0.08670187  0.42543684  0.09566513    -0.25400
H611        H  0.99006812  0.39186698  0.16627075     0.08500
H612        H  0.03466070  0.43669192  0.14462251     0.12100
H613        H  0.03100313  0.31201140  0.09122674     0.12100
H614        H  0.08348357  0.32789525  0.05357376     0.11800
H615        H  0.13109911  0.37210591  0.03525475     0.12400
H616        H  0.08790823  0.45266831  0.10726484     0.14300
C617        C  0.02579988  0.67385791  0.13147816    -0.05700
C618        C  0.02534223  0.67078262  0.09267396    -0.05600
C619        C  0.05231465  0.65328952  0.07390854    -0.23800
C620        C  0.08099591  0.63760543  0.09298170     0.18400
C621        C  0.08277300  0.63970465  0.13166373     0.15600
C622        C  0.05498563  0.65768347  0.15088467    -0.18800
C623        C  0.11220379  0.62335529  0.15007519    -0.20700
C624        C  0.13907090  0.60528210  0.13032067    -0.13200
C625        C  0.13656611  0.60283122  0.09194686     0.03500
C626        C  0.10755875  0.61925180  0.07360072    -0.25400
H627        H  0.00363199  0.68237299  0.07635737     0.08500
H628        H  0.05051103  0.65184710  0.04428512     0.12100
H629        H  0.05582810  0.65825718  0.18047384     0.12100
H630        H  0.11432908  0.62433942  0.17965755     0.11800
H631        H  0.16113112  0.59227810  0.14501478     0.12400
H632        H  0.10549938  0.61737798  0.04402140     0.14300
C633        C  0.12767266  0.60703090  0.92406679    -0.05700
C634        C  0.10231175  0.62055372  0.94869028    -0.05600
C635        C  0.07496383  0.64346907  0.93690680    -0.23800
C636        C  0.07192716  0.65287201  0.89999399     0.18400
C637        C  0.09744371  0.64023302  0.87471181     0.15600
C638        C  0.12581377  0.61762610  0.88702411    -0.18800
C639        C  0.09341519  0.64996561  0.83771741    -0.20700
C640        C  0.06316830  0.66994668  0.82570770    -0.13200
C641        C  0.03580667  0.67993150  0.85043388     0.03500
C642        C  0.04246348  0.67330304  0.88800366    -0.25400
H643        H  0.10355448  0.61316288  0.97732676     0.08500
H644        H  0.05554235  0.65304508  0.95657903     0.12100
H645        H  0.14533309  0.60729490  0.86784809     0.12100
H646        H  0.11317475  0.64141731  0.81791389     0.11800
H647        H  0.06130932  0.67663721  0.79703750     0.12400
H648        H  0.02250322  0.68137417  0.90783581     0.14300
C649        C  0.43141440  0.36224746  0.81934897    -0.05700
C650        C  0.39967497  0.37486244  0.80096049    -0.05600
C651        C  0.36861664  0.38382584  0.82001639    -0.23800
C652        C  0.36870712  0.38162898  0.85804782     0.18400
C653        C  0.39859948  0.36602793  0.87673556     0.15600
C654        C  0.42826222  0.35351741  0.85678237    -0.18800
C655        C  0.39965113  0.36609316  0.91511076    -0.20700
C656        C  0.37291782  0.38422368  0.93446908    -0.13200
C657        C  0.34385223  0.40065349  0.91571231     0.03500
C658        C  0.34070899  0.39736721  0.87767883    -0.25400
H659        H  0.39841775  0.37800983  0.77158131     0.08500
H660        H  0.34543039  0.39465171  0.80513439     0.12100
H661        H  0.45081960  0.34082137  0.87103348     0.12100
H662        H  0.42237644  0.35442216  0.92999513     0.11800
H663        H  0.37542039  0.38631838  0.96398667     0.12400
H664        H  0.31841329  0.41031243  0.86318894     0.14300
C665        C  0.45413392  0.64784896  0.82381467    -0.05700
C666        C  0.42349897  0.66914104  0.83187829    -0.05600
C667        C  0.39382712  0.65485802  0.85161845    -0.23800
C668        C  0.39423716  0.61932470  0.86550669     0.18400
C669        C  0.42501675  0.59806427  0.85951855     0.15600
C670        C  0.45399233  0.61204633  0.83874648    -0.18800
C671        C  0.42691272  0.56329179  0.87516228    -0.20700
C672        C  0.39839794  0.54962174  0.89645666    -0.13200
C673        C  0.36705720  0.57012438  0.90209839     0.03500
C674        C  0.36505172  0.60504326  0.88624303    -0.25400
H675        H  0.42181026  0.69714856  0.82378000     0.08500
H676        H  0.37081083  0.67204547  0.85674343     0.12100
H677        H  0.47778895  0.59536930  0.83658319     0.12100
H678        H  0.45060499  0.54670631  0.87113116     0.11800
H679        H  0.40072998  0.52273204  0.90825411     0.12400
H680        H  0.34134784  0.62144929  0.89090728     0.14300
C681        C  0.37835202  0.57316870  0.08416652    -0.05700
C682        C  0.40958283  0.55218925  0.09002802    -0.05600
C683        C  0.43935123  0.56594210  0.11098289    -0.23800
C684        C  0.43873151  0.60120701  0.12590984     0.18400
C685        C  0.40792781  0.62272346  0.11926448     0.15600
C686        C  0.37782732  0.60850512  0.09896417    -0.18800
C687        C  0.40784999  0.65839427  0.13254453    -0.20700
C688        C  0.43753219  0.67256828  0.15295743    -0.13200
C689        C  0.46770248  0.65087568  0.16273179     0.03500
C690        C  0.46818098  0.61524108  0.14751228    -0.25400
H691        H  0.41066350  0.52480878  0.07904720     0.08500
H692        H  0.46279433  0.54897794  0.11555657     0.12100
H693        H  0.35416577  0.62517394  0.09423803     0.12100
H694        H  0.38487271  0.67566320  0.12675272     0.11800
H695        H  0.43595253  0.70076596  0.16080570     0.12400
H696        H  0.49128426  0.59812844  0.15328370     0.14300
C697        C  0.35190121  0.42046522  0.09454635    -0.05700
C698        C  0.34689097  0.42702662  0.13192678    -0.05600
C699        C  0.37058626  0.41274020  0.15784919    -0.23800
C700        C  0.39935605  0.39135457  0.14667227     0.18400
C701        C  0.40321189  0.38272157  0.10916395     0.15600
C702        C  0.37967925  0.39786884  0.08305650    -0.18800
C703        C  0.43077958  0.35950843  0.09858321    -0.20700
C704        C  0.45617830  0.34778423  0.12449257    -0.13200
C705        C  0.45557626  0.36061544  0.16105947     0.03500
C706        C  0.42509898  0.37979925  0.17237265    -0.25400
H707        H  0.32511822  0.44418009  0.14100058     0.08500
H708        H  0.36696775  0.41918621  0.18648934     0.12100
H709        H  0.38278687  0.39211837  0.05416529     0.12100
H710        H  0.43345152  0.35145609  0.07022663     0.11800
H711        H  0.47832974  0.33110657  0.11547201     0.12400
H712        H  0.42157440  0.38665809  0.20084627     0.14300
C713        C  0.61062384  0.43743625  0.08465332    -0.05700
C714        C  0.57494384  0.44848492  0.07591743    -0.05600
C715        C  0.54541773  0.43564992  0.09547499    -0.23800
C716        C  0.55072287  0.41106238  0.12391714     0.18400
C717        C  0.58609550  0.39999152  0.13387442     0.15600
C718        C  0.61622383  0.41347860  0.11419099    -0.18800
C719        C  0.59026998  0.37596668  0.16342044    -0.20700
C720        C  0.55935187  0.36140748  0.18105788    -0.13200
C721        C  0.52371964  0.36932937  0.16840737     0.10700
C722        C  0.52059321  0.39714153  0.14201358    -0.25400
H723        H  0.56948181  0.46714500  0.05370849     0.08500
H724        H  0.51826361  0.44445233  0.08781635     0.12100
H725        H  0.64359186  0.40514069  0.12153522     0.12100
H726        H  0.61727854  0.36824192  0.17266402     0.11800
H727        H  0.56327960  0.34351868  0.20419492     0.12400
H728        H  0.49442426  0.40854975  0.13497910     0.14300
C729        C  0.62135366  0.60561516  0.07233881    -0.05700
C730        C  0.59456527  0.62505079  0.05307934    -0.05600
C731        C  0.56857005  0.64514067  0.07194672    -0.23800
C732        C  0.56820223  0.64504658  0.11042685     0.18400
C733        C  0.59544667  0.62580238  0.12952511     0.15600
C734        C  0.62219977  0.60705271  0.11055814    -0.18800
C735        C  0.59464151  0.62388344  0.16740705    -0.20700
C736        C  0.56574968  0.63822226  0.18635496    -0.13200
C737        C  0.53680584  0.65679512  0.16849526     0.03500
C738        C  0.54003493  0.66178648  0.13008673    -0.25400
H739        H  0.59376730  0.62464583  0.02348858     0.08500
H740        H  0.54800269  0.65956630  0.05646981     0.12100
H741        H  0.64264132  0.59192343  0.12557490     0.12100
H742        H  0.61538588  0.60922650  0.18246844     0.11800
H743        H  0.56652647  0.63239811  0.21503646     0.12400
H744        H  0.51880324  0.67581901  0.11513756     0.14300
C745        C  0.61401268  0.59943633  0.91273139    -0.05700
C746        C  0.58383160  0.60961905  0.93331101    -0.05600
C747        C  0.55491523  0.62729203  0.91656057    -0.23800
C748        C  0.55550283  0.63368552  0.87889688     0.18400
C749        C  0.58622507  0.62404735  0.85842930     0.15600
C750        C  0.61572739  0.60785883  0.87566204    -0.18800
C751        C  0.58652400  0.62953749  0.82080334    -0.20700
C752        C  0.55567889  0.64232928  0.80307959    -0.13200
C753        C  0.52351972  0.64956831  0.82261863     0.03500
C754        C  0.52521976  0.64801712  0.86112912    -0.25400
H755        H  0.58232831  0.60326219  0.96214263     0.08500
H756        H  0.53154511  0.63448208  0.93264827     0.12100
H757        H  0.63894151  0.59971843  0.85977137     0.12100
H758        H  0.61027675  0.62311675  0.80491977     0.11800
H759        H  0.55739050  0.64636702  0.77390808     0.12400
H760        H  0.50229491  0.65653741  0.87716834     0.14300
C761        C  0.50255067  0.37076185  0.81854551    -0.05700
C762        C  0.53733674  0.36618967  0.80299692    -0.05600
C763        C  0.56957957  0.38024373  0.81994855    -0.23800
C764        C  0.56824092  0.39973522  0.85300674     0.18400
C765        C  0.53374072  0.40626362  0.86796569     0.15600
C766        C  0.50155123  0.39331673  0.85007783    -0.18800
C767        C  0.53171768  0.42572532  0.90082460    -0.20700
C768        C  0.56345293  0.43849599  0.91891028    -0.13200
C769        C  0.59835534  0.43274717  0.90454748     0.03500
C770        C  0.60048183  0.41316306  0.87123628    -0.25400
H771        H  0.53954326  0.35118358  0.77761076     0.08500
H772        H  0.59560982  0.37548535  0.80733713     0.12100
H773        H  0.47597339  0.40206125  0.86084755     0.12100
H774        H  0.50545227  0.43087093  0.91282068     0.11800
H775        H  0.56044802  0.45314856  0.94439013     0.12400
H776        H  0.62695490  0.40855183  0.85947229     0.14300
C777        C  0.85375843  0.41345581  0.06330919    -0.05700
C778        C  0.87686585  0.39669395  0.03842384    -0.05600
C779        C  0.90283441  0.37204551  0.05049069    -0.23800
C780        C  0.90704110  0.36452747  0.08788236     0.18400
C781        C  0.88435478  0.38143249  0.11336530     0.15600
C782        C  0.85715252  0.40525347  0.10083974    -0.18800
C783        C  0.89021202  0.37510556  0.15086740    -0.20700
C784        C  0.91926930  0.35368771  0.16304299    -0.13200
C785        C  0.94252428  0.33693334  0.13787621     0.03500
C786        C  0.93486808  0.34175909  0.10014854    -0.25400
H787        H  0.87438142  0.40225990  0.00939355     0.08500
H788        H  0.92019206  0.35945571  0.03060682     0.12100
H789        H  0.83947543  0.41820049  0.12020277     0.12100
H790        H  0.87335703  0.38811003  0.17091174     0.11800
H791        H  0.92435913  0.35211462  0.19217734     0.12400
H792        H  0.95263996  0.32974136  0.08025012     0.14300
C793        C  0.95037016  0.34127240  0.85639318    -0.05700
C794        C  0.94839538  0.37643108  0.84070645    -0.05600
C795        C  0.92203773  0.40099786  0.85109877    -0.23800
C796        C  0.89624121  0.39122147  0.87725040     0.18400
C797        C  0.89699595  0.35614404  0.89303642     0.15600
C798        C  0.92443490  0.33185340  0.88333870    -0.18800
C799        C  0.87041194  0.34609860  0.91861269    -0.20700
C800        C  0.84357636  0.37059986  0.92845431    -0.13200
C801        C  0.84345891  0.40583737  0.91368308     0.03500
C802        C  0.86994338  0.41611720  0.88818965    -0.25400
H803        H  0.96804834  0.38510654  0.82048500     0.08500
H804        H  0.92191353  0.42774280  0.83865207     0.12100
H805        H  0.92568326  0.30631932  0.89777984     0.12100
H806        H  0.87038318  0.31933617  0.93102572     0.11800
H807        H  0.82356748  0.36247719  0.94856619     0.12400
H808        H  0.86995123  0.44339017  0.87688095     0.14300
C809        C  0.85195210  0.60295807  0.90234781    -0.05700
C810        C  0.84104356  0.63665065  0.88750375    -0.05600
C811        C  0.86627348  0.66060879  0.87076326    -0.23800
C812        C  0.90316911  0.65148784  0.86798319     0.18400
C813        C  0.91412968  0.61755179  0.88203338     0.15600
C814        C  0.88882725  0.59382196  0.89934270    -0.18800
C815        C  0.95025998  0.60739209  0.87799233    -0.20700
C816        C  0.97578491  0.63102566  0.86207752    -0.13200
C817        C  0.96707044  0.66707679  0.85152203     0.03500
C818        C  0.92941808  0.67570071  0.85209140    -0.25400
H819        H  0.81289909  0.64486915  0.88925023     0.08500
H820        H  0.85691042  0.68635267  0.86018705     0.12100
H821        H  0.89783727  0.56803007  0.91012219     0.12100
H822        H  0.95892925  0.58084939  0.88706665     0.11800
H823        H  0.00276551  0.62041977  0.85860383     0.12400
H824        H  0.92100356  0.70201186  0.84211064     0.14300
C825        C  0.86331317  0.59722068  0.06029619    -0.05700
C826        C  0.86711872  0.63180211  0.04472978    -0.05600
C827        C  0.89232227  0.65696717  0.05929749    -0.23800
C828        C  0.91375872  0.64779492  0.08982346     0.18400
C829        C  0.91116394  0.61238301  0.10473191     0.15600
C830        C  0.88570360  0.58702671  0.08978751    -0.18800
C831        C  0.93408016  0.60316767  0.13413873    -0.20700
C832        C  0.95911541  0.62894748  0.14869726    -0.13200
C833        C  0.96068461  0.66514618  0.13546251     0.03500
C834        C  0.93787541  0.67369001  0.10528806    -0.25400
H835        H  0.84988139  0.63955781  0.02175455     0.08500
H836        H  0.89446194  0.68383849  0.04721386     0.12100
H837        H  0.88260219  0.56003542  0.10148449     0.12100
H838        H  0.93307642  0.57593438  0.14548236     0.11800
H839        H  0.97759657  0.62070234  0.17044235     0.12400
H840        H  0.94011051  0.69978091  0.09184407     0.14300
C841        C  0.05010539  0.03384879  0.84045087    -0.05700
C842        C  0.03514650  0.05810800  0.81483461    -0.05600
C843        C  0.05185831  0.06345670  0.78086484    -0.23800
C844        C  0.08366942  0.04462627  0.77224332     0.18400
C845        C  0.09839311  0.02047069  0.79811117     0.15600
C846        C  0.08157707  0.01505649  0.83140298    -0.18800
C847        C  0.13005694  0.00188696  0.79076541    -0.20700
C848        C  0.14623897  0.00546905  0.75713429    -0.13200
C849        C  0.13121299  0.02756735  0.72921520     0.03500
C850        C  0.10079913  0.04897477  0.73829869    -0.25400
H851        H  0.01086201  0.07301720  0.82109984     0.08500
H852        H  0.03993990  0.08216534  0.76142375     0.12100
H853        H  0.09362193  0.99607085  0.85050782     0.12100
H854        H  0.14186694  0.98363337  0.81073505     0.11800
H855        H  0.16957875  0.98875465  0.75210485     0.12400
H856        H  0.08962102  0.06857125  0.71966828     0.14300
C857        C  0.13610682  0.02270390  0.27075073    -0.05700
C858        C  0.12398366  0.98874070  0.25614993    -0.05600
C859        C  0.10925980  0.98588779  0.22111356    -0.23800
C860        C  0.10641258  0.01670314  0.19920914     0.18400
C861        C  0.11843951  0.05111101  0.21234977     0.15600
C862        C  0.13431231  0.05376987  0.24773450    -0.18800
C863        C  0.11445506  0.08178063  0.18960773    -0.20700
C864        C  0.09883905  0.07794868  0.15420995    -0.13200
C865        C  0.08758624  0.04331093  0.14106231     0.03500
C866        C  0.09188162  0.01302067  0.16404083    -0.25400
H867        H  0.12685691  0.96361804  0.27111902     0.08500
H868        H  0.10042470  0.95924975  0.21096435     0.12100
H869        H  0.14485562  0.07991020  0.25763179     0.12100
H870        H  0.12318962  0.10860908  0.19923165     0.11800
H871        H  0.09543429  0.10187296  0.13736226     0.12400
H872        H  0.08350243  0.98591503  0.15485879     0.14300
C873        C  0.23696035  0.50882788  0.17027965    -0.05700
C874        C  0.26720484  0.50528531  0.19382711    -0.05600
C875        C  0.26264069  0.50629439  0.23163787    -0.23800
C876        C  0.22777687  0.51110652  0.24613018     0.18400
C877        C  0.19713089  0.51393382  0.22240301     0.15600
C878        C  0.20190236  0.51258997  0.18448842    -0.18800
C879        C  0.16233955  0.51794688  0.23701754    -0.20700
C880        C  0.15811452  0.52037805  0.27483695    -0.13200
C881        C  0.18862124  0.51982958  0.29905172     0.03500
C882        C  0.22325801  0.51325568  0.28396632    -0.25400
H883        H  0.29425254  0.50183172  0.18292373     0.08500
H884        H  0.28639151  0.50378603  0.24951940     0.12100
H885        H  0.17853492  0.51479699  0.16598849     0.12100
H886        H  0.13841134  0.51939761  0.21921423     0.11800
H887        H  0.13086282  0.52329433  0.28540357     0.12400
H888        H  0.24702561  0.50895956  0.30122192     0.14300
C889        C  0.33525148  0.49906989  0.43553767    -0.05700
C890        C  0.30942166  0.47242716  0.44632228    -0.05600
C891        C  0.27374922  0.47253062  0.43189402    -0.23800
C892        C  0.26359030  0.49918637  0.40645605     0.18400
C893        C  0.28903807  0.52681376  0.39676124     0.15600
C894        C  0.32445457  0.52667450  0.41139684    -0.18800
C895        C  0.27889577  0.55401019  0.37222819    -0.20700
C896        C  0.24439778  0.55262881  0.35563148    -0.13200
C897        C  0.21946675  0.52349757  0.36237859     0.03500
C898        C  0.22874374  0.49820408  0.38996924    -0.25400
H899        H  0.31695300  0.45116374  0.46527105     0.08500
H900        H  0.25440245  0.45131908  0.43994406     0.12100
H901        H  0.34375276  0.54803069  0.40352067     0.12100
H902        H  0.29791838  0.57590640  0.36521790     0.11800
H903        H  0.23754293  0.57358144  0.33605856     0.12400
H904        H  0.20935108  0.47754405  0.39886514     0.14300
C905        C  0.79997448  0.51654931  0.29378141    -0.05700
C906        C  0.81436466  0.54702355  0.27455068    -0.05600
C907        C  0.80554179  0.55283269  0.23761426    -0.23800
C908        C  0.78100703  0.52928093  0.21882574     0.18400
C909        C  0.76573924  0.49905397  0.23746782     0.15600
C910        C  0.77580191  0.49251208  0.27419716    -0.18800
C911        C  0.74044864  0.47588959  0.21909116    -0.20700
C912        C  0.73166920  0.48165832  0.18221253    -0.13200
C913        C  0.74784846  0.51077283  0.16276810     0.03500
C914        C  0.77181740  0.53517448  0.18164287    -0.25400
H915        H  0.83164809  0.56750684  0.28785667     0.08500
H916        H  0.81732363  0.57639102  0.22395387     0.12100
H917        H  0.76382496  0.46919280  0.28809191     0.12100
H918        H  0.72800916  0.45282138  0.23301432     0.11800
H919        H  0.71289653  0.46257610  0.16849748     0.12400
H920        H  0.78462354  0.55760941  0.16702909     0.14300
C921        C  0.63729125  0.48323327  0.39916276    -0.05700
C922        C  0.65550903  0.45006874  0.39830863    -0.05600
C923        C  0.69146166  0.44874585  0.38545136    -0.23800
C924        C  0.70984324  0.48058453  0.37336183     0.18400
C925        C  0.69096542  0.51346899  0.37190368     0.15600
C926        C  0.65491044  0.51452999  0.38446435    -0.18800
C927        C  0.70868218  0.54496119  0.35862412    -0.20700
C928        C  0.74517336  0.54416277  0.34777979    -0.13200
C929        C  0.76573015  0.51230889  0.35127678     0.03500
C930        C  0.74680663  0.48014139  0.36311343    -0.25400
H931        H  0.64280507  0.42566501  0.40946517     0.08500
H932        H  0.70537663  0.42306018  0.38625451     0.12100
H933        H  0.64105777  0.54029265  0.38427617     0.12100
H934        H  0.69426114  0.57030316  0.35652461     0.11800
H935        H  0.75759365  0.56869762  0.33658830     0.12400
H936        H  0.76017433  0.45422400  0.36355330     0.14300
C937        C  0.89939956  0.97105523  0.85721171    -0.05700
C938        C  0.91150128  0.94527061  0.83195627    -0.05600
C939        C  0.90172261  0.94783569  0.79459141    -0.23800
C940        C  0.87985312  0.97638019  0.78178588     0.18400
C941        C  0.86606576  0.00095901  0.80740862     0.15600
C942        C  0.87550844  0.99797563  0.84472044    -0.18800
C943        C  0.84500528  0.02973024  0.79515885    -0.20700
C944        C  0.83775380  0.03451295  0.75791164    -0.13200
C945        C  0.85074859  0.01059862  0.73074587     0.03500
C946        C  0.87258488  0.98147931  0.74389936    -0.25400
H947        H  0.93064300  0.92483944  0.84059445     0.08500
H948        H  0.91262427  0.92846281  0.77549900     0.12100
H949        H  0.86641957  0.01838066  0.86382675     0.12100
H950        H  0.83490675  0.04943123  0.81442454     0.11800
H951        H  0.82366673  0.05883218  0.75086854     0.12400
H952        H  0.88497003  0.96284193  0.72531326     0.14300
C953        C  0.93855867  0.97786615  0.15875586    -0.05700
C954        C  0.91228113  0.95015818  0.16514902    -0.05600
C955        C  0.88904414  0.95242739  0.19515166    -0.23800
C956        C  0.89142663  0.98280919  0.21866494     0.18400
C957        C  0.91912196  0.00962718  0.21329435     0.15600
C958        C  0.94256663  0.00688655  0.18357128    -0.18800
C959        C  0.92239309  0.03938180  0.23710220    -0.20700
C960        C  0.89833484  0.04291920  0.26592322    -0.13200
C961        C  0.86896342  0.01768180  0.27092741     0.03500
C962        C  0.86643237  0.98715609  0.24707428    -0.25400
H963        H  0.90813009  0.92811265  0.14562144     0.08500
H964        H  0.86817567  0.93135681  0.19895666     0.12100
H965        H  0.96228561  0.02870798  0.17817811     0.12100
H966        H  0.94417367  0.05964324  0.23392695     0.11800
H967        H  0.90442550  0.06466693  0.28514689     0.12400
H968        H  0.84550639  0.96624214  0.25139124     0.14300
C969        C  0.19064988  0.52838836  0.69463003    -0.05700
C970        C  0.20400324  0.56091617  0.71176559    -0.05600
C971        C  0.21111158  0.56265754  0.74932743    -0.23800
C972        C  0.20576619  0.53172705  0.77091349     0.18400
C973        C  0.18993092  0.49981562  0.75499117     0.15600
C974        C  0.18038257  0.49910574  0.71750288    -0.18800
C975        C  0.18540021  0.46855524  0.77650448    -0.20700
C976        C  0.19719999  0.46866168  0.81310383    -0.13200
C977        C  0.21305616  0.50028489  0.82927649     0.03500
C978        C  0.21670823  0.53198102  0.80794353    -0.25400
H979        H  0.21127419  0.58452405  0.69550446     0.08500
H980        H  0.22267506  0.58762348  0.76108993     0.12100
H981        H  0.16649455  0.47511582  0.70657578     0.12100
H982        H  0.17346428  0.44373246  0.76481654     0.11800
H983        H  0.19346200  0.44396636  0.82886313     0.12400
H984        H  0.22863354  0.55670934  0.81989822     0.14300
C985        C  0.23275068  0.53159170  0.64096557    -0.05700
C986        C  0.26152852  0.52174040  0.66530847    -0.05600
C987        C  0.29806854  0.52447586  0.65540714    -0.23800
C988        C  0.30741101  0.53644824  0.62057556     0.18400
C989        C  0.27945626  0.54555763  0.59524553     0.15600
C990        C  0.24245167  0.54178191  0.60510264    -0.18800
C991        C  0.28907780  0.55732864  0.56014193    -0.20700
C992        C  0.32580569  0.55854703  0.54992160    -0.13200
C993        C  0.35345267  0.54813512  0.57460400     0.03500
C994        C  0.34418360  0.53757060  0.61007050    -0.25400
H995        H  0.25615373  0.51081908  0.69216425     0.08500
H996        H  0.31904337  0.51652166  0.67491040     0.12100
H997        H  0.22121064  0.54692085  0.58487819     0.12100
H998        H  0.26816668  0.56448060  0.54025200     0.11800
H999        H  0.33249944  0.56567933  0.52204237     0.12400
H1000       H  0.36539121  0.52844074  0.62876831     0.14300
C1001       C  0.79778017  0.51696595  0.69217966    -0.05700
C1002       C  0.77949915  0.54861955  0.70310354    -0.05600
C1003       C  0.76428564  0.55147394  0.73749760    -0.23800
C1004       C  0.76562521  0.52223649  0.76164161     0.18400
C1005       C  0.78196507  0.48953408  0.75072163     0.15600
C1006       C  0.79763360  0.48695325  0.71612590    -0.18800
C1007       C  0.78229820  0.45987772  0.77461142    -0.20700
C1008       C  0.76750845  0.46299660  0.80929622    -0.13200
C1009       C  0.75206729  0.49583888  0.82073214     0.03500
C1010       C  0.75088381  0.52525747  0.79655224    -0.25400
H1011       H  0.77699898  0.57147446  0.68466900     0.08500
H1012       H  0.75121382  0.57648952  0.74506199     0.12100
H1013       H  0.80840246  0.46114440  0.70772062     0.12100
H1014       H  0.79453738  0.43451353  0.76674610     0.11800
H1015       H  0.76924509  0.43993016  0.82759587     0.12400
H1016       H  0.73899013  0.55060616  0.80505010     0.14300
C1017       C  0.77399005  0.51210454  0.63091300    -0.05700
C1018       C  0.75284241  0.47940380  0.63272732    -0.05600
C1019       C  0.71932170  0.47569429  0.61451680    -0.23800
C1020       C  0.70491602  0.50526786  0.59579858     0.18400
C1021       C  0.72427101  0.53904957  0.59553167     0.15600
C1022       C  0.75866900  0.54228562  0.61296721    -0.18800
C1023       C  0.70872641  0.56901725  0.57792830    -0.20700
C1024       C  0.67454983  0.56526601  0.56031814    -0.13200
C1025       C  0.65549837  0.53159544  0.56041444     0.03500
C1026       C  0.67092666  0.50172105  0.57810733    -0.25400
H1027       H  0.76283523  0.45625836  0.64784944     0.08500
H1028       H  0.70438021  0.44984687  0.61562394     0.12100
H1029       H  0.77282500  0.56853127  0.61321960     0.12100
H1030       H  0.72296805  0.59526106  0.57777351     0.11800
H1031       H  0.66272730  0.58873368  0.54721500     0.12400
H1032       H  0.65627673  0.47564418  0.57832030     0.14300
C1033       C  0.98416577  0.27362208  0.32412361    -0.05700
C1034       C  0.95246842  0.25893047  0.30662140    -0.05600
C1035       C  0.94533449  0.26536477  0.26951439    -0.23800
C1036       C  0.96955568  0.28697588  0.24908999     0.18400
C1037       C  0.00190864  0.30112578  0.26609812     0.15600
C1038       C  0.00927690  0.29407364  0.30334954    -0.18800
C1039       C  0.02627599  0.32227911  0.24561727    -0.20700
C1040       C  0.01891935  0.32925339  0.20872069    -0.13200
C1041       C  0.98620654  0.31624503  0.19103372     0.03500
C1042       C  0.96197370  0.29452078  0.21197871    -0.25400
H1043       H  0.93273180  0.24290050  0.32188729     0.08500
H1044       H  0.92049828  0.25397899  0.25697867     0.12100
H1045       H  0.03369255  0.30577964  0.31648094     0.12100
H1046       H  0.05155716  0.33288475  0.25794780     0.11800
H1047       H  0.04016610  0.34368515  0.19413212     0.12400
H1048       H  0.93742366  0.28293752  0.19902204     0.14300
C1049       C  0.00900921  0.27550376  0.67073149    -0.05700
C1050       C  0.03942569  0.26455023  0.69183127    -0.05600
C1051       C  0.03996642  0.26848755  0.73023156    -0.23800
C1052       C  0.01036510  0.28404300  0.74820564     0.18400
C1053       C  0.97987966  0.29480285  0.72706647     0.15600
C1054       C  0.97929163  0.29032344  0.68891425    -0.18800
C1055       C  0.95008667  0.30992030  0.74426326    -0.20700
C1056       C  0.95076212  0.31592517  0.78187020    -0.13200
C1057       C  0.98183436  0.30810904  0.80384431     0.03500
C1058       C  0.01075842  0.28981936  0.78659568    -0.25400
H1059       H  0.06267936  0.25281059  0.67866910     0.08500
H1060       H  0.06372490  0.25989936  0.74575745     0.12100
H1061       H  0.95570597  0.29912762  0.67321510     0.12100
H1062       H  0.92601588  0.31728477  0.72851194     0.11800
H1063       H  0.92623396  0.32662193  0.79331704     0.12400
H1064       H  0.03416689  0.28157936  0.80288135     0.14300
C1065       C  0.90116639  0.38851746  0.42202822    -0.05700
C1066       C  0.88622279  0.41328892  0.44652358    -0.05600
C1067       C  0.86185259  0.43929177  0.43426405    -0.23800
C1068       C  0.85316319  0.44207277  0.39693016     0.18400
C1069       C  0.86895980  0.41832070  0.37160282     0.15600
C1070       C  0.89228865  0.39089227  0.38443014    -0.18800
C1071       C  0.86170308  0.42310915  0.33404398    -0.20700
C1072       C  0.83990674  0.45174196  0.32173119    -0.13200
C1073       C  0.82393833  0.47563272  0.34687428     0.03500
C1074       C  0.83010802  0.46938896  0.38459799    -0.25400
H1075       H  0.89301154  0.41211202  0.47541972     0.08500
H1076       H  0.85035560  0.45772064  0.45394764     0.12100
H1077       H  0.90417635  0.37213429  0.36531337     0.12100
H1078       H  0.87392173  0.40548050  0.31410106     0.11800
H1079       H  0.83697750  0.45577748  0.29256930     0.12400
H1080       H  0.81857954  0.48767765  0.40442855     0.14300
C1081       C  0.90479472  0.38526483  0.57608648    -0.05700
C1082       C  0.87470810  0.39369938  0.55381764    -0.05600
C1083       C  0.84971402  0.41899432  0.56528202    -0.23800
C1084       C  0.85444334  0.43612790  0.59937420     0.18400
C1085       C  0.88424870  0.42733412  0.62248910     0.15600
C1086       C  0.90933597  0.40147743  0.61078002    -0.18800
C1087       C  0.88904727  0.44566506  0.65604069    -0.20700
C1088       C  0.86504296  0.47300723  0.66605001    -0.13200
C1089       C  0.83446745  0.48133258  0.64375545     0.03500
C1090       C  0.83024083  0.46274449  0.60993710    -0.25400
H1091       H  0.87051224  0.38046377  0.52749431     0.08500
H1092       H  0.82685006  0.42536785  0.54734821     0.12100
H1093       H  0.93252862  0.39455557  0.62804609     0.12100
H1094       H  0.91205717  0.43976915  0.67394390     0.11800
H1095       H  0.87058212  0.48807865  0.69113123     0.12400
H1096       H  0.80911904  0.47011765  0.59043625     0.14300
C1097       C  0.17864652  0.48969318  0.63361443    -0.05700
C1098       C  0.18942583  0.45514289  0.64617362    -0.05600
C1099       C  0.17203996  0.42292385  0.63276946    -0.23800
C1100       C  0.14523385  0.42431889  0.60471739     0.18400
C1101       C  0.13889060  0.45815153  0.58795925     0.15600
C1102       C  0.15666686  0.48987572  0.60127136    -0.18800
C1103       C  0.11363216  0.46028246  0.55895849    -0.20700
C1104       C  0.09302404  0.42963834  0.54797851    -0.13200
C1105       C  0.09725515  0.39568502  0.56531379     0.03500
C1106       C  0.12451057  0.39298164  0.59314205    -0.25400
H1107       H  0.20989253  0.45306975  0.66777053     0.08500
H1108       H  0.17897940  0.39707822  0.64491260     0.12100
H1109       H  0.15178654  0.51511289  0.58696602     0.12100
H1110       H  0.10887867  0.48602373  0.54545254     0.11800
H1111       H  0.07330055  0.43283134  0.52583748     0.12400
H1112       H  0.12882483  0.36705103  0.60637915     0.14300
C1113       C  0.15960293  0.48726206  0.34978176    -0.05700
C1114       C  0.17399861  0.45254048  0.34279444    -0.05600
C1115       C  0.15598715  0.42062739  0.35433065    -0.23800
C1116       C  0.12266022  0.42250320  0.37242429     0.18400
C1117       C  0.10618472  0.45667689  0.37617213     0.15600
C1118       C  0.12407059  0.48843237  0.36397883    -0.18800
C1119       C  0.07259865  0.45894482  0.39348205    -0.20700
C1120       C  0.05654734  0.42812264  0.40908411    -0.13200
C1121       C  0.07345797  0.39411284  0.40750169     0.03500
C1122       C  0.10602938  0.39119584  0.38784830    -0.25400
H1123       H  0.20042303  0.45032881  0.33018689     0.08500
H1124       H  0.16877713  0.39467069  0.35026632     0.12100
H1125       H  0.11026848  0.51394973  0.36665018     0.12100
H1126       H  0.05932694  0.48484987  0.39616220     0.11800
H1127       H  0.03102009  0.43123260  0.42318554     0.12400
H1128       H  0.11919779  0.36516098  0.38599437     0.14300
C1129       C  0.06531268  0.14924094  0.59308602    -0.05700
C1130       C  0.03974019  0.12258756  0.60452676    -0.05600
C1131       C  0.05106860  0.09296677  0.62508833    -0.23800
C1132       C  0.08815521  0.08953634  0.63403995     0.18400
C1133       C  0.11376920  0.11658956  0.62284693     0.15600
C1134       C  0.10212820  0.14665286  0.60293122    -0.18800
C1135       C  0.15081079  0.11249034  0.63055371    -0.20700
C1136       C  0.16235328  0.08278018  0.65068911    -0.13200
C1137       C  0.13690723  0.05707107  0.66529261     0.03500
C1138       C  0.10001164  0.05959730  0.65410803    -0.25400
H1139       H  0.01102406  0.12452237  0.59711660     0.08500
H1140       H  0.03099442  0.07260509  0.63354451     0.12100
H1141       H  0.12180682  0.16704966  0.59361847     0.12100
H1142       H  0.17097238  0.13215627  0.62080276     0.11800
H1143       H  0.19153511  0.08055417  0.65431504     0.12400
H1144       H  0.08027172  0.03881559  0.66241390     0.14300
C1145       C  0.90788358  0.14636614  0.58463022    -0.05700
C1146       C  0.88411441  0.12287607  0.56446374    -0.05600
C1147       C  0.86141741  0.09725334  0.58218954    -0.23800
C1148       C  0.86312101  0.09340380  0.62046384     0.18400
C1149       C  0.88756803  0.11620124  0.64091692     0.15600
C1150       C  0.90882934  0.14333477  0.62308681    -0.18800
C1151       C  0.89187090  0.11012132  0.67856747    -0.20700
C1152       C  0.87497480  0.07984447  0.69517666    -0.13200
C1153       C  0.85091629  0.05593387  0.67523058     0.03500
C1154       C  0.84301491  0.06532284  0.63821351    -0.25400
H1155       H  0.88255749  0.12489457  0.53491645     0.08500
H1156       H  0.84331341  0.07968185  0.56581756     0.12100
H1157       H  0.92725745  0.16107953  0.63893814     0.12100
H1158       H  0.91074604  0.12711436  0.69469891     0.11800
H1159       H  0.88341167  0.07421013  0.72294634     0.12400
H1160       H  0.82521281  0.04732771  0.62194734     0.14300
C1161       C  0.90179012  0.14600533  0.41699789    -0.05700
C1162       C  0.89568107  0.11354133  0.43649168    -0.05600
C1163       C  0.87698405  0.08407553  0.42022448    -0.23800
C1164       C  0.86499306  0.08612701  0.38375786     0.18400
C1165       C  0.86958421  0.11893803  0.36414046     0.15600
C1166       C  0.88742828  0.14910159  0.38115596    -0.18800
C1167       C  0.85759606  0.12021120  0.32745397    -0.20700
C1168       C  0.84571847  0.08814895  0.30935714    -0.13200
C1169       C  0.84704356  0.05425224  0.32739650     0.03500
C1170       C  0.85131139  0.05486922  0.36585831    -0.25400
H1171       H  0.90581613  0.11075285  0.46435369     0.08500
H1172       H  0.87353803  0.05906790  0.43560699     0.12100
H1173       H  0.89189879  0.17408140  0.36595710     0.12100
H1174       H  0.85953910  0.14540671  0.31218164     0.11800
H1175       H  0.83918930  0.08930170  0.28038765     0.12400
H1176       H  0.84796669  0.03000441  0.38146255     0.14300
C1177       C  0.06429212  0.14823495  0.40022821    -0.05700
C1178       C  0.04439449  0.13855167  0.36836701    -0.05600
C1179       C  0.05828470  0.11345826  0.34370466    -0.23800
C1180       C  0.09236236  0.09783175  0.35060967     0.18400
C1181       C  0.11187765  0.10668566  0.38327499     0.15600
C1182       C  0.09778847  0.13199233  0.40786491    -0.18800
C1183       C  0.14491807  0.08975636  0.39102223    -0.20700
C1184       C  0.15867218  0.06444837  0.36661080    -0.13200
C1185       C  0.14095662  0.05663575  0.33271028     0.03500
C1186       C  0.10696763  0.07323227  0.32560344    -0.25400
H1187       H  0.01835396  0.15085147  0.36236407     0.08500
H1188       H  0.04263035  0.10664646  0.31905784     0.12100
H1189       H  0.11291763  0.13932251  0.43271149     0.12100
H1190       H  0.15981558  0.09553012  0.41635719     0.11800
H1191       H  0.18339572  0.05055612  0.37431219     0.12400
H1192       H  0.09060252  0.06580045  0.30167680     0.14300
C1193       C  0.99196085  0.69560645  0.19178084    -0.05700
C1194       C  0.96073359  0.68509256  0.21220211    -0.05600
C1195       C  0.95729191  0.69435497  0.24905387    -0.23800
C1196       C  0.98431113  0.71543742  0.26718409     0.18400
C1197       C  0.01597109  0.72629180  0.24804824     0.15600
C1198       C  0.01962724  0.71642424  0.21064433    -0.18800
C1199       C  0.04294961  0.74753618  0.26660305    -0.20700
C1200       C  0.03856861  0.75770806  0.30340694    -0.13200
C1201       C  0.00687152  0.74738304  0.32271938     0.03500
C1202       C  0.97976716  0.72619928  0.30401091    -0.25400
H1203       H  0.93723337  0.67142367  0.19962401     0.08500
H1204       H  0.93261265  0.68600696  0.26307813     0.12100
H1205       H  0.04326908  0.72618288  0.19575904     0.12100
H1206       H  0.06755569  0.75626121  0.25268957     0.11800
H1207       H  0.06017017  0.77377515  0.31681477     0.12400
H1208       H  0.95539101  0.71741694  0.31830916     0.14300
C1209       C  0.99284443  0.70202557  0.79746326    -0.05700
C1210       C  0.99557025  0.67273990  0.77258897    -0.05600
C1211       C  0.99578928  0.67850024  0.73460578    -0.23800
C1212       C  0.99220170  0.71365285  0.72014533     0.18400
C1213       C  0.98623835  0.74288710  0.74423222     0.15600
C1214       C  0.98529331  0.73671510  0.78224551    -0.18800
C1215       C  0.98181566  0.77806825  0.72994289    -0.20700
C1216       C  0.98383688  0.78431738  0.69220336    -0.13200
C1217       C  0.99030778  0.75558792  0.66801227     0.03500
C1218       C  0.99420698  0.72015050  0.68211441    -0.25400
H1219       H  0.99934011  0.64538985  0.78273266     0.08500
H1220       H  0.99945881  0.65547098  0.71655947     0.12100
H1221       H  0.97898242  0.75950498  0.79956326     0.12100
H1222       H  0.97712041  0.80086200  0.74801383     0.11800
H1223       H  0.98042621  0.81165553  0.68184506     0.12400
H1224       H  0.99872747  0.69774642  0.66347923     0.14300
C1225       C  0.10055890  0.65341342  0.42818269    -0.05700
C1226       C  0.11297512  0.62702108  0.45287368    -0.05600
C1227       C  0.13289486  0.59765824  0.44064882    -0.23800
C1228       C  0.14022436  0.59388800  0.40337882     0.18400
C1229       C  0.12933748  0.62106238  0.37851290     0.15600
C1230       C  0.10985993  0.65105477  0.39114295    -0.18800
C1231       C  0.13744349  0.61725963  0.34140704    -0.20700
C1232       C  0.15492386  0.58624907  0.32881670    -0.13200
C1233       C  0.16370363  0.55752966  0.35289473     0.03500
C1234       C  0.15733573  0.56279626  0.39056848    -0.25400
H1235       H  0.10643525  0.62870197  0.48162656     0.08500
H1236       H  0.14145951  0.57726032  0.46015362     0.12100
H1237       H  0.10035372  0.67140162  0.37201840     0.12100
H1238       H  0.13018037  0.63826746  0.32203260     0.11800
H1239       H  0.16165740  0.58545590  0.30022248     0.12400
H1240       H  0.16500221  0.54188391  0.40992131     0.14300
C1241       C  0.09880185  0.66075541  0.57874807    -0.05700
C1242       C  0.13620279  0.67065130  0.57894471    -0.05600
C1243       C  0.16222512  0.64757360  0.59407027    -0.23800
C1244       C  0.15118408  0.61454125  0.61010521     0.18400
C1245       C  0.11343063  0.60530526  0.61150539     0.15600
C1246       C  0.08754217  0.62796273  0.59503252    -0.18800
C1247       C  0.10212510  0.57390867  0.63000136    -0.20700
C1248       C  0.12792757  0.55090203  0.64524785    -0.13200
C1249       C  0.16586294  0.55699026  0.64005594     0.03500
C1250       C  0.17717484  0.59047670  0.62440856    -0.25400
H1251       H  0.14536561  0.69591991  0.56650472     0.08500
H1252       H  0.19093959  0.65547566  0.59304723     0.12100
H1253       H  0.05865698  0.62057460  0.59561759     0.12100
H1254       H  0.07330094  0.56699565  0.63255006     0.11800
H1255       H  0.11819268  0.52656051  0.65907132     0.12400
H1256       H  0.20586993  0.59812219  0.62331434     0.14300
C1257       C  0.90908004  0.64132482  0.57003871    -0.05700
C1258       C  0.89709059  0.61433406  0.54503250    -0.05600
C1259       C  0.87526210  0.58506495  0.55637333    -0.23800
C1260       C  0.86594243  0.58176714  0.59318111     0.18400
C1261       C  0.87909013  0.60796594  0.61893870     0.15600
C1262       C  0.89998330  0.63825027  0.60707297    -0.18800
C1263       C  0.87173514  0.60286429  0.65604840    -0.20700
C1264       C  0.85087177  0.57262227  0.66734512    -0.13200
C1265       C  0.83485575  0.54787060  0.64155202     0.03500
C1266       C  0.84378985  0.55249084  0.60448498    -0.25400
H1267       H  0.90401733  0.61638401  0.51639237     0.08500
H1268       H  0.86576768  0.56496036  0.53636564     0.12100
H1269       H  0.90984842  0.65877025  0.62651527     0.12100
H1270       H  0.88269623  0.62187126  0.67643369     0.11800
H1271       H  0.84769406  0.56884345  0.69642487     0.12400
H1272       H  0.83312110  0.53325836  0.58419931     0.14300
C1273       C  0.90457834  0.63938844  0.42532011    -0.05700
C1274       C  0.86800535  0.64079636  0.43626233    -0.05600
C1275       C  0.84154022  0.61596749  0.42238354    -0.23800
C1276       C  0.85084041  0.58992152  0.39621031     0.18400
C1277       C  0.88761266  0.58827917  0.38506478     0.15600
C1278       C  0.91448659  0.61244177  0.40030823    -0.18800
C1279       C  0.89665747  0.56324913  0.35804576    -0.20700
C1280       C  0.86964308  0.54067724  0.34174457    -0.13200
C1281       C  0.83257177  0.54125520  0.35252057     0.03500
C1282       C  0.82389873  0.56589066  0.38078766    -0.25400
H1283       H  0.85986075  0.66147473  0.45547914     0.08500
H1284       H  0.81357880  0.61783292  0.43136785     0.12100
H1285       H  0.94255940  0.61152473  0.39138429     0.12100
H1286       H  0.92461282  0.56148584  0.34900436     0.11800
H1287       H  0.87786656  0.52187665  0.32073200     0.12400
H1288       H  0.79664288  0.56636677  0.39156874     0.14300
C1289       C  0.14473238  0.99062885  0.33203041    -0.05700
C1290       C  0.17019925  0.96655178  0.34755727    -0.05600
C1291       C  0.15839932  0.93603399  0.36783117    -0.23800
C1292       C  0.12103545  0.92964073  0.37455553     0.18400
C1293       C  0.09548613  0.95434825  0.36051084     0.15600
C1294       C  0.10726327  0.98375343  0.33911260    -0.18800
C1295       C  0.05836373  0.94977052  0.36847866    -0.20700
C1296       C  0.04650621  0.92108435  0.39048779    -0.13200
C1297       C  0.07121044  0.89560584  0.40414381     0.03500
C1298       C  0.10863632  0.89970293  0.39572345    -0.25400
H1299       H  0.19927134  0.97116035  0.34463095     0.08500
H1300       H  0.17862008  0.91787844  0.37897581     0.12100
H1301       H  0.08694027  0.00168472  0.32780169     0.12100
H1302       H  0.03847514  0.96870586  0.35807275     0.11800
H1303       H  0.01765861  0.91843646  0.39642632     0.12400
H1304       H  0.12800155  0.88043258  0.40649598     0.14300
C1305       C  0.86513965  0.98794571  0.32888444    -0.05700
C1306       C  0.90053593  0.99647996  0.34338557    -0.05600
C1307       C  0.91961126  0.97186855  0.36457096    -0.23800
C1308       C  0.90474604  0.93719878  0.37067313     0.18400
C1309       C  0.87083247  0.92667856  0.35414620     0.15600
C1310       C  0.85148830  0.95185283  0.33288700    -0.18800
C1311       C  0.85700802  0.89110885  0.35920146    -0.20700
C1312       C  0.87636293  0.86663487  0.38091753    -0.13200
C1313       C  0.90957523  0.87752192  0.39824152     0.03500
C1314       C  0.92366155  0.91279456  0.39276908    -0.25400
H1315       H  0.91321495  0.02304587  0.33909147     0.08500
H1316       H  0.94606445  0.98002400  0.37618000     0.12100
H1317       H  0.82638814  0.94292532  0.31914023     0.12100
H1318       H  0.83121932  0.88230363  0.34658755     0.11800
H1319       H  0.86508025  0.83936696  0.38463646     0.12400
H1320       H  0.94957010  0.92117233  0.40545249     0.14300
C1321       C  0.90858433  0.88255497  0.58778501    -0.05700
C1322       C  0.88168679  0.86848269  0.61158517    -0.05600
C1323       C  0.86428770  0.89091606  0.63655728    -0.23800
C1324       C  0.87306079  0.92820786  0.63844811     0.18400
C1325       C  0.89988209  0.94271883  0.61488217     0.15600
C1326       C  0.91737653  0.92005130  0.58965000    -0.18800
C1327       C  0.90977899  0.97947518  0.61790168    -0.20700
C1328       C  0.89230025  0.00189082  0.64260207    -0.13200
C1329       C  0.86223969  0.98934602  0.66400818     0.03500
C1330       C  0.85541129  0.95114028  0.66342219    -0.25400
H1331       H  0.87407787  0.83978976  0.61120620     0.08500
H1332       H  0.84386717  0.87902385  0.65435473     0.12100
H1333       H  0.93829243  0.93147481  0.57210891     0.12100
H1334       H  0.93154511  0.99097414  0.60144972     0.11800
H1335       H  0.90338034  0.02934902  0.64461783     0.12400
H1336       H  0.83631981  0.93908703  0.68250454     0.14300
C1337       C  0.08173273  0.89773569  0.57837204    -0.05700
C1338       C  0.10092722  0.92432081  0.55818506    -0.05600
C1339       C  0.12166522  0.95201165  0.57613726    -0.23800
C1340       C  0.12238386  0.95430048  0.61456146     0.18400
C1341       C  0.10328713  0.92736728  0.63466804     0.15600
C1342       C  0.08404333  0.89885588  0.61662751    -0.18800
C1343       C  0.10202501  0.93018676  0.67254618    -0.20700
C1344       C  0.11706308  0.96060492  0.69043348    -0.13200
C1345       C  0.13613787  0.98874895  0.67146784     0.03500
C1346       C  0.14005333  0.98388224  0.63316400    -0.25400
H1347       H  0.10005230  0.92348701  0.52855869     0.08500
H1348       H  0.13606054  0.97228285  0.55998127     0.12100
H1349       H  0.06936837  0.87838135  0.63236770     0.12100
H1350       H  0.08738039  0.90977627  0.68835886     0.11800
H1351       H  0.11191012  0.96151553  0.71921812     0.12400
H1352       H  0.15454360  0.00449990  0.61751129     0.14300
C1353       C  0.30372469  0.81976235  0.49439054    -0.05700
C1354       C  0.28512269  0.83885475  0.46653395    -0.05600
C1355       C  0.24706049  0.83506031  0.46198572    -0.23800
C1356       C  0.22643246  0.81370633  0.48622799     0.18400
C1357       C  0.24413041  0.79791412  0.51664426     0.15600
C1358       C  0.28215533  0.80131251  0.52069081    -0.18800
C1359       C  0.22370349  0.77805678  0.54213944    -0.20700
C1360       C  0.18601596  0.77340599  0.53729000    -0.13200
C1361       C  0.16806618  0.78786942  0.50651146     0.03500
C1362       C  0.18846061  0.80811447  0.48093935    -0.25400
H1363       H  0.29934974  0.85633337  0.44763297     0.08500
H1364       H  0.23377218  0.84874085  0.43934687     0.12100
H1365       H  0.29547274  0.78740426  0.54320725     0.12100
H1366       H  0.23688709  0.76600263  0.56579651     0.11800
H1367       H  0.17088656  0.75806642  0.55753265     0.12400
H1368       H  0.17473848  0.82006908  0.45751995     0.14300
C1369       C  0.35668080  0.77657666  0.48871721    -0.05700
C1370       C  0.33026025  0.74900915  0.47868136    -0.05600
C1371       C  0.34012311  0.71353773  0.47056461    -0.23800
C1372       C  0.37681162  0.70446543  0.46985986     0.18400
C1373       C  0.40400228  0.73178210  0.47696235     0.15600
C1374       C  0.39388018  0.76720454  0.48685341    -0.18800
C1375       C  0.44091861  0.72293171  0.47478178    -0.20700
C1376       C  0.45058496  0.68699726  0.46803675    -0.13200
C1377       C  0.42361680  0.65930815  0.46323461     0.03500
C1378       C  0.38669701  0.66830239  0.46315492    -0.25400
H1379       H  0.30145513  0.75402188  0.47618697     0.08500
H1380       H  0.31886760  0.69324643  0.46423680     0.12100
H1381       H  0.41502449  0.78766391  0.49293440     0.12100
H1382       H  0.46229644  0.74342044  0.47978937     0.11800
H1383       H  0.47927083  0.68026161  0.46911026     0.12400
H1384       H  0.36582736  0.64688809  0.46041924     0.14300
C1385       C  0.16879935  0.25437762  0.48629796    -0.05700
C1386       C  0.18742378  0.26317913  0.45391808    -0.05600
C1387       C  0.22405381  0.25378129  0.44933177    -0.23800
C1388       C  0.24285045  0.23467410  0.47671952     0.18400
C1389       C  0.22447802  0.22589161  0.50931769     0.15600
C1390       C  0.18796012  0.23611594  0.51414695    -0.18800
C1391       C  0.24279183  0.20674395  0.53662707    -0.20700
C1392       C  0.27871194  0.19606477  0.53186696    -0.13200
C1393       C  0.29811058  0.20384263  0.49931528     0.03500
C1394       C  0.27955334  0.22423338  0.47216252    -0.25400
H1395       H  0.17355080  0.27722438  0.43189697     0.08500
H1396       H  0.23747288  0.26096187  0.42407778     0.12100
H1397       H  0.17408874  0.22868957  0.53911377     0.12100
H1398       H  0.22938877  0.20019294  0.56207410     0.11800
H1399       H  0.29131333  0.18292953  0.55507136     0.12400
H1400       H  0.29388917  0.23229226  0.44767081     0.14300
C1401       C  0.35972126  0.23444170  0.49733476    -0.05700
C1402       C  0.35276596  0.25887864  0.52617428    -0.05600
C1403       C  0.36918327  0.29363304  0.52764384    -0.23800
C1404       C  0.39353229  0.30498718  0.50056118     0.18400
C1405       C  0.40116882  0.28135097  0.47148880     0.15600
C1406       C  0.38323968  0.24712804  0.46923541    -0.18800
C1407       C  0.42653293  0.29243669  0.44495967    -0.20700
C1408       C  0.44344058  0.32710861  0.44676794    -0.13200
C1409       C  0.43462953  0.35148256  0.47467631     0.03500
C1410       C  0.41000786  0.33982591  0.50185227    -0.25400
H1411       H  0.33450199  0.25088981  0.54787745     0.08500
H1412       H  0.36298422  0.31156773  0.55017659     0.12100
H1413       H  0.38781890  0.23111362  0.44504425     0.12100
H1414       H  0.43312723  0.27436148  0.42267911     0.11800
H1415       H  0.46248017  0.33522579  0.42577317     0.12400
H1416       H  0.40349299  0.35793722  0.52416683     0.14300
C1417       C  0.70198990  0.20511137  0.99207974    -0.05700
C1418       C  0.73718934  0.21830953  0.98204250    -0.05600
C1419       C  0.74495307  0.25526011  0.97913523    -0.23800
C1420       C  0.71787450  0.28013268  0.98591178     0.18400
C1421       C  0.68164082  0.26784253  0.99249538     0.15600
C1422       C  0.67359154  0.23035439  0.99350576    -0.18800
C1423       C  0.65462980  0.29332451  0.99942011    -0.20700
C1424       C  0.66405749  0.33045803  0.00117523    -0.13200
C1425       C  0.70028517  0.34209828  0.99529355     0.03500
C1426       C  0.72679503  0.31715238  0.98677700    -0.25400
H1427       H  0.75927644  0.20038290  0.97607364     0.08500
H1428       H  0.77249711  0.26437661  0.97260153     0.12100
H1429       H  0.64573707  0.22079333  0.99797211     0.12100
H1430       H  0.62664044  0.28452115  0.00431540     0.11800
H1431       H  0.64322226  0.35005931  0.00680187     0.12400
H1432       H  0.75454790  0.32665564  0.98147002     0.14300
C1433       C  0.85302443  0.09121754  0.97197728    -0.05700
C1434       C  0.82975150  0.08151563  0.94250657    -0.05600
C1435       C  0.79295286  0.09077322  0.94301301    -0.23800
C1436       C  0.77936274  0.11029743  0.97271686     0.18400
C1437       C  0.80321039  0.12143334  0.00162068     0.15600
C1438       C  0.83979308  0.11185187  0.00105866    -0.18800
C1439       C  0.79000350  0.14142127  0.03092883    -0.20700
C1440       C  0.75398693  0.15265853  0.03024799    -0.13200
C1441       C  0.73017902  0.14377336  0.00043528     0.03500
C1442       C  0.74254679  0.11956740  0.97352066    -0.25400
H1443       H  0.83944255  0.06492729  0.92030558     0.08500
H1444       H  0.77505193  0.08231801  0.92044537     0.12100
H1445       H  0.85779187  0.11924352  0.02397965     0.12100
H1446       H  0.80788145  0.14963674  0.05362102     0.11800
H1447       H  0.74521795  0.17037137  0.05197591     0.12400
H1448       H  0.72450137  0.10893214  0.95217825     0.14300
C1449       C  0.30373624  0.20913040  0.99943604    -0.05700
C1450       C  0.32048763  0.23144388  0.97271698    -0.05600
C1451       C  0.31090083  0.26791980  0.96847839    -0.23800
C1452       C  0.28466376  0.28320196  0.99098039     0.18400
C1453       C  0.27075496  0.26256452  0.02038906     0.15600
C1454       C  0.28204157  0.22654383  0.02568400    -0.18800
C1455       C  0.24444674  0.27768021  0.04298282    -0.20700
C1456       C  0.23229523  0.31300136  0.03671824    -0.13200
C1457       C  0.24589319  0.33388064  0.00755252     0.03500
C1458       C  0.27214539  0.31870016  0.98466994    -0.25400
H1459       H  0.33998411  0.22076623  0.95390089     0.08500
H1460       H  0.32303407  0.28377258  0.94665224     0.12100
H1461       H  0.27007508  0.21050019  0.04748248     0.12100
H1462       H  0.23326355  0.26219103  0.06554691     0.11800
H1463       H  0.21257786  0.32431249  0.05506974     0.12400
H1464       H  0.28364145  0.33491069  0.96273241     0.14300
C1465       C  0.15445772  0.06539559  0.97460889    -0.05700
C1466       C  0.18487643  0.04284829  0.97333329    -0.05600
C1467       C  0.22037763  0.05803477  0.97680293    -0.23800
C1468       C  0.22567198  0.09590169  0.98098501     0.18400
C1469       C  0.19510848  0.11849509  0.97930092     0.15600
C1470       C  0.15992158  0.10322428  0.97642707    -0.18800
C1471       C  0.19998244  0.15617016  0.98046662    -0.20700
C1472       C  0.23478112  0.17165150  0.98463739    -0.13200
C1473       C  0.26573465  0.14997408  0.99119164     0.03500
C1474       C  0.26066349  0.11165820  0.98744600    -0.25400
H1475       H  0.18115155  0.01351599  0.97180622     0.08500
H1476       H  0.24350393  0.04017892  0.97728916     0.12100
H1477       H  0.13656387  0.12086566  0.97646856     0.12100
H1478       H  0.17683737  0.17383801  0.97735094     0.11800
H1479       H  0.23649193  0.20080473  0.98195542     0.12400
H1480       H  0.28402037  0.09420585  0.99003685     0.14300
C1481       C  0.69352076  0.81768598  0.50526173    -0.05700
C1482       C  0.70589481  0.79943415  0.53703471    -0.05600
C1483       C  0.74182855  0.78748334  0.54059820    -0.23800
C1484       C  0.76599359  0.79086349  0.51143859     0.18400
C1485       C  0.75354908  0.80654607  0.47841199     0.15600
C1486       C  0.71795887  0.82036049  0.47569355    -0.18800
C1487       C  0.77676465  0.80764872  0.44832479    -0.20700
C1488       C  0.81221038  0.79435603  0.45118027    -0.13200
C1489       C  0.82576810  0.78013538  0.48438167     0.03500
C1490       C  0.80214370  0.77831259  0.51448547    -0.25400
H1491       H  0.68746382  0.79452946  0.55945459     0.08500
H1492       H  0.75038467  0.77466669  0.56588979     0.12100
H1493       H  0.70902205  0.83152901  0.44978700     0.12100
H1494       H  0.76761606  0.81907706  0.42254576     0.11800
H1495       H  0.82947983  0.79641423  0.42749848     0.12400
H1496       H  0.81184289  0.76725372  0.54023994     0.14300
C1497       C  0.63211556  0.78989702  0.49943251    -0.05700
C1498       C  0.64028475  0.76617321  0.47035300    -0.05600
C1499       C  0.62436587  0.73142133  0.46759305    -0.23800
C1500       C  0.59989333  0.71902224  0.49398861     0.18400
C1501       C  0.59102619  0.74189633  0.52338671     0.15600
C1502       C  0.60768686  0.77675512  0.52641638    -0.18800
C1503       C  0.56599286  0.72922449  0.54950869    -0.20700
C1504       C  0.55060128  0.69391968  0.54683949    -0.13200
C1505       C  0.56041267  0.67060415  0.51829202     0.03500
C1506       C  0.58471754  0.68373883  0.49168285    -0.25400
H1507       H  0.65917073  0.77480638  0.44942403     0.08500
H1508       H  0.63144687  0.71411789  0.44485140     0.12100
H1509       H  0.60201196  0.79275837  0.55039036     0.12100
H1510       H  0.55853882  0.74649730  0.57212931     0.11800
H1511       H  0.53168566  0.68462739  0.56748719     0.12400
H1512       H  0.59203394  0.66643641  0.46900237     0.14300
C1513       C  0.71831880  0.67667032  0.98165324    -0.05700
C1514       C  0.69799316  0.68837283  0.95097978    -0.05600
C1515       C  0.68603398  0.72400965  0.94871972    -0.23800
C1516       C  0.69423346  0.74878721  0.97702129     0.18400
C1517       C  0.71510784  0.73757854  0.00769739     0.15600
C1518       C  0.72683530  0.70151302  0.00999720    -0.18800
C1519       C  0.72407856  0.76269798  0.03541467    -0.20700
C1520       C  0.71223925  0.79841202  0.03290075    -0.13200
C1521       C  0.69018837  0.80998474  0.00309965     0.03500
C1522       C  0.68211262  0.78463954  0.97480565    -0.25400
H1523       H  0.69048988  0.66967368  0.92895161     0.08500
H1524       H  0.67011960  0.73208692  0.92493668     0.12100
H1525       H  0.74249316  0.69281881  0.03372744     0.12100
H1526       H  0.74053890  0.75485549  0.05890281     0.11800
H1527       H  0.72044013  0.81745093  0.05440416     0.12400
H1528       H  0.66763056  0.79264693  0.95023393     0.14300
C1529       C  0.83652060  0.94399538  0.01926572    -0.05700
C1530       C  0.81267660  0.95545320  0.04635612    -0.05600
C1531       C  0.77757364  0.93974478  0.04847374    -0.23800
C1532       C  0.76584543  0.91279669  0.02323826     0.18400
C1533       C  0.78943794  0.90205510  0.99533218     0.15600
C1534       C  0.82445009  0.91751045  0.99361445    -0.18800
C1535       C  0.77783411  0.87590956  0.96956627    -0.20700
C1536       C  0.74288333  0.86049353  0.97132810    -0.13200
C1537       C  0.71870005  0.87037912  0.99922299     0.03500
C1538       C  0.73103253  0.89635899  0.02556574    -0.25400
H1539       H  0.82137305  0.97594444  0.06626289     0.08500
H1540       H  0.75968025  0.94853073  0.06989928     0.12100
H1541       H  0.84225881  0.90882622  0.97201446     0.12100
H1542       H  0.79570565  0.86747996  0.94793890     0.11800
H1543       H  0.73447480  0.84054826  0.95074738     0.12400
H1544       H  0.71419004  0.90386010  0.04819770     0.14300
C1545       C  0.30117644  0.81130885  0.00527148    -0.05700
C1546       C  0.29107770  0.79744664  0.03981148    -0.05600
C1547       C  0.28401054  0.76020453  0.04520334    -0.23800
C1548       C  0.28524469  0.73566399  0.01585459     0.18400
C1549       C  0.29527188  0.74881518  0.98107070     0.15600
C1550       C  0.30378328  0.78609411  0.97612466    -0.18800
C1551       C  0.29515324  0.72470545  0.95130265    -0.20700
C1552       C  0.28480075  0.68811470  0.95576927    -0.13200
C1553       C  0.27463190  0.67439583  0.99023743     0.03500
C1554       C  0.27542068  0.69849200  0.02037993    -0.25400
H1555       H  0.28738523  0.81589454  0.06254519     0.08500
H1556       H  0.27605996  0.75084650  0.07206428     0.12100
H1557       H  0.30980256  0.79550412  0.94881414     0.12100
H1558       H  0.30261685  0.73424106  0.92434877     0.11800
H1559       H  0.28499293  0.67046430  0.93198248     0.12400
H1560       H  0.26765911  0.68858080  0.04710843     0.14300
C1561       C  0.25963612  0.86235278  0.00225688    -0.05700
C1562       C  0.23378404  0.84668720  0.97726918    -0.05600
C1563       C  0.19683389  0.85503420  0.97856312    -0.23800
C1564       C  0.18442211  0.87875335  0.00537366     0.18400
C1565       C  0.20901765  0.89238371  0.03258185     0.15600
C1566       C  0.24609210  0.88343503  0.03141654    -0.18800
C1567       C  0.19629877  0.91572409  0.05984306    -0.20700
C1568       C  0.16006816  0.92713951  0.05876622    -0.13200
C1569       C  0.13612516  0.91527746  0.03051536     0.03500
C1570       C  0.14814291  0.89016731  0.00457195    -0.25400
H1571       H  0.24257982  0.82884237  0.95568618     0.08500
H1572       H  0.17813794  0.84367351  0.95794419     0.12100
H1573       H  0.26400309  0.89325781  0.05333050     0.12100
H1574       H  0.21473006  0.92633908  0.08107449     0.11800
H1575       H  0.15138950  0.94690471  0.07867463     0.12400
H1576       H  0.12969042  0.88098890  0.98267072     0.14300
C1577       C  0.19662073  0.02899171  0.30026086    -0.05700
C1578       C  0.21711474  0.06173389  0.30654743    -0.05600
C1579       C  0.25417074  0.06484944  0.29769943    -0.23800
C1580       C  0.27178933  0.03593434  0.28094064     0.18400
C1581       C  0.25144056  0.00387918  0.27204234     0.15600
C1582       C  0.21424770  0.00074094  0.28140873    -0.18800
C1583       C  0.26879945  0.97527518  0.25431084    -0.20700
C1584       C  0.30626074  0.97780416  0.24687686    -0.13200
C1585       C  0.32726799  0.00913296  0.25667317     0.03500
C1586       C  0.30941589  0.03848857  0.27309653    -0.25400
H1587       H  0.20472410  0.08561619  0.31770037     0.08500
H1588       H  0.26902185  0.09013380  0.30377554     0.12100
H1589       H  0.19896783  0.97594148  0.27441908     0.12100
H1590       H  0.25356582  0.95057018  0.24686425     0.11800
H1591       H  0.31892625  0.95490049  0.23389060     0.12400
H1592       H  0.32497654  0.06292499  0.28083124     0.14300
C1593       C  0.80462020  0.00997485  0.29760337    -0.05700
C1594       C  0.78150024  0.99608464  0.32507005    -0.05600
C1595       C  0.74390652  0.99114192  0.31885444    -0.23800
C1596       C  0.72765070  0.00322358  0.28631149     0.18400
C1597       C  0.74959875  0.02038384  0.25967219     0.15600
C1598       C  0.78782808  0.02309605  0.26516127    -0.18800
C1599       C  0.73271802  0.03564131  0.22864587    -0.20700
C1600       C  0.69452852  0.03407178  0.22432946    -0.13200
C1601       C  0.67281837  0.01598873  0.25020115     0.03500
C1602       C  0.68955670  0.00019704  0.28089504    -0.25400
H1603       H  0.79253664  0.98895530  0.35168088     0.08500
H1604       H  0.72730926  0.97925534  0.34022324     0.12100
H1605       H  0.80429355  0.03671119  0.24473568     0.12100
H1606       H  0.74896764  0.04943658  0.20814841     0.11800
H1607       H  0.68191123  0.04674098  0.20070898     0.12400
H1608       H  0.67269460  0.98706572  0.30137859     0.14300
C1609       C  0.36849778  0.84178995  0.47090270    -0.05700
C1610       C  0.39777162  0.86516732  0.48374260    -0.05600
C1611       C  0.41763764  0.88767244  0.46028282    -0.23800
C1612       C  0.40975648  0.88750114  0.42286291     0.18400
C1613       C  0.38268478  0.86279914  0.40883110     0.15600
C1614       C  0.36338547  0.83926879  0.43258894    -0.18800
C1615       C  0.37500308  0.86242262  0.37122771    -0.20700
C1616       C  0.39338976  0.88659073  0.34799495    -0.13200
C1617       C  0.42032229  0.91168350  0.36157603     0.03500
C1618       C  0.42858070  0.91157799  0.39930203    -0.25400
H1619       H  0.40652077  0.86618493  0.51208843     0.08500
H1620       H  0.43913326  0.90545092  0.47159632     0.12100
H1621       H  0.34354543  0.81965192  0.42133548     0.12100
H1622       H  0.35438424  0.84375154  0.35976522     0.11800
H1623       H  0.38620565  0.88559689  0.31914460     0.12400
H1624       H  0.44935669  0.93031724  0.41038859     0.14300
C1625       C  0.64423892  0.85123996  0.46707072    -0.05700
C1626       C  0.66176836  0.88581807  0.46363297    -0.05600
C1627       C  0.65128362  0.91032105  0.43624527    -0.23800
C1628       C  0.62292055  0.90100022  0.41133820     0.18400
C1629       C  0.60577112  0.86618494  0.41361672     0.15600
C1630       C  0.61602480  0.84201560  0.44140171    -0.18800
C1631       C  0.57767918  0.85627613  0.38866009    -0.20700
C1632       C  0.56615764  0.88079841  0.36208327    -0.13200
C1633       C  0.58195828  0.91587533  0.36031673     0.03500
C1634       C  0.61058281  0.92600816  0.38484457    -0.25400
H1635       H  0.68295593  0.89430861  0.48315391     0.08500
H1636       H  0.66487918  0.93685082  0.43504860     0.12100
H1637       H  0.60031185  0.81684290  0.44367428     0.12100
H1638       H  0.56429880  0.82964407  0.38993974     0.11800
H1639       H  0.54397916  0.87275566  0.34346537     0.12400
H1640       H  0.62279738  0.95318628  0.38351946     0.14300
C1641       C  0.42656015  0.09967995  0.37380145    -0.05700
C1642       C  0.45050721  0.11212127  0.40180545    -0.05600
C1643       C  0.43803330  0.13402421  0.42994603    -0.23800
C1644       C  0.40113932  0.14334118  0.43103193     0.18400
C1645       C  0.37657126  0.13111302  0.40320614     0.15600
C1646       C  0.38955007  0.10964043  0.37430408    -0.18800
C1647       C  0.33952526  0.14018678  0.40525820    -0.20700
C1648       C  0.32697720  0.16113763  0.43457222    -0.13200
C1649       C  0.35141923  0.17428256  0.46220053     0.03500
C1650       C  0.38853602  0.16436251  0.45993021    -0.25400
H1651       H  0.47915982  0.10531122  0.40158274     0.08500
H1652       H  0.45722275  0.14341085  0.45108733     0.12100
H1653       H  0.37091674  0.10018118  0.35269853     0.12100
H1654       H  0.32009037  0.13059261  0.38444576     0.11800
H1655       H  0.29807893  0.16617902  0.43559723     0.12400
H1656       H  0.40786411  0.17337326  0.48113931     0.14300
C1657       C  0.50669391  0.18126238  0.22751343    -0.05700
C1658       C  0.53852007  0.19373151  0.20961063    -0.05600
C1659       C  0.54051898  0.22842179  0.19435419    -0.23800
C1660       C  0.51099701  0.25156630  0.19725911     0.18400
C1661       C  0.47892231  0.23905525  0.21496364     0.15600
C1662       C  0.47677879  0.20395340  0.22955974    -0.18800
C1663       C  0.44958330  0.26202330  0.21842069    -0.20700
C1664       C  0.45297288  0.29786310  0.20713589    -0.13200
C1665       C  0.48561934  0.31180139  0.19139228     0.03500
C1666       C  0.51353110  0.28736930  0.18403080    -0.25400
H1667       H  0.56178576  0.17636687  0.20664371     0.08500
H1668       H  0.56532117  0.23729630  0.18084026     0.12100
H1669       H  0.45201321  0.19446315  0.24278864     0.12100
H1670       H  0.42463947  0.25284069  0.23148308     0.11800
H1671       H  0.43056767  0.31560435  0.21280308     0.12400
H1672       H  0.53770393  0.29596644  0.16957924     0.14300
C1673       C  0.49516062  0.70611663  0.19780146    -0.05700
C1674       C  0.46645821  0.71577132  0.22135063    -0.05600
C1675       C  0.46134692  0.75172960  0.23225141    -0.23800
C1676       C  0.48485230  0.77959665  0.22026362     0.18400
C1677       C  0.51400286  0.77073166  0.19709657     0.15600
C1678       C  0.51906993  0.73430421  0.18609363    -0.18800
C1679       C  0.53783819  0.79852837  0.18541603    -0.20700
C1680       C  0.53309480  0.83442243  0.19668879    -0.13200
C1681       C  0.50421125  0.84379331  0.21966063     0.03500
C1682       C  0.47983462  0.81610969  0.23115977    -0.25400
H1683       H  0.44756217  0.69501548  0.23127089     0.08500
H1684       H  0.43894157  0.75767934  0.25013579     0.12100
H1685       H  0.54169693  0.72822678  0.16862361     0.12100
H1686       H  0.56032366  0.79253392  0.16764537     0.11800
H1687       H  0.55215396  0.85514514  0.18711379     0.12400
H1688       H  0.45757176  0.82281669  0.24895655     0.14300
C1689       C  0.67354396  0.15454340  0.03326548    -0.05700
C1690       C  0.66423942  0.18044623  0.06010913    -0.05600
C1691       C  0.64340000  0.17028548  0.09037554    -0.23800
C1692       C  0.63261582  0.13382268  0.09556157     0.18400
C1693       C  0.64456789  0.10714695  0.07086052     0.15600
C1694       C  0.66520625  0.11752600  0.04055918    -0.18800
C1695       C  0.63484121  0.07047881  0.07622614    -0.20700
C1696       C  0.61202366  0.06054698  0.10481221    -0.13200
C1697       C  0.59850107  0.08688216  0.12853604     0.03500
C1698       C  0.60981981  0.12349594  0.12465475    -0.25400
H1699       H  0.67298111  0.20864131  0.05845468     0.08500
H1700       H  0.63563984  0.19102749  0.10969774     0.12100
H1701       H  0.67348685  0.09683957  0.02137525     0.12100
H1702       H  0.64425874  0.04956500  0.05791544     0.11800
H1703       H  0.60486000  0.03212316  0.10861063     0.12400
H1704       H  0.59989412  0.14386894  0.14329747     0.14300
C1705       C  0.65762613  0.86379302  0.03271780    -0.05700
C1706       C  0.64566332  0.84072627  0.06132443    -0.05600
C1707       C  0.62460471  0.85403535  0.08971482    -0.23800
C1708       C  0.61270786  0.88993074  0.08902755     0.18400
C1709       C  0.62164928  0.91241162  0.05911640     0.15600
C1710       C  0.64493462  0.89984841  0.03226221    -0.18800
C1711       C  0.60672452  0.94700509  0.05620729    -0.20700
C1712       C  0.58425982  0.95973938  0.08354978    -0.13200
C1713       C  0.57830961  0.93915056  0.11534290     0.03500
C1714       C  0.59192053  0.90379246  0.11757730    -0.25400
H1715       H  0.65192479  0.81221798  0.06223093     0.08500
H1716       H  0.61688753  0.83594218  0.11180084     0.12100
H1717       H  0.65274429  0.91807958  0.01032824     0.12100
H1718       H  0.61230116  0.96414666  0.03276555     0.11800
H1719       H  0.57258443  0.98632828  0.08036341     0.12400
H1720       H  0.58638256  0.88721205  0.14138204     0.14300
C1721       C  0.32518091  0.87572211  0.02587218    -0.05700
C1722       C  0.32468188  0.91420982  0.02360665    -0.05600
C1723       C  0.34737330  0.93631926  0.04573268    -0.23800
C1724       C  0.37180307  0.92070808  0.07051014     0.18400
C1725       C  0.37436475  0.88235560  0.07196774     0.15600
C1726       C  0.35156089  0.86018907  0.04937959    -0.18800
C1727       C  0.39906893  0.86677495  0.09677264    -0.20700
C1728       C  0.41897081  0.88883710  0.12160520    -0.13200
C1729       C  0.41536272  0.92680407  0.12116892     0.03500
C1730       C  0.39289534  0.94278001  0.09464777    -0.25400
H1731       H  0.30617116  0.92722953  0.00456397     0.08500
H1732       H  0.34542504  0.96565520  0.04377641     0.12100
H1733       H  0.35497085  0.83103932  0.05002750     0.12100
H1734       H  0.40184227  0.83749102  0.09802291     0.11800
H1735       H  0.43673122  0.87624647  0.14168112     0.12400
H1736       H  0.39028634  0.97213793  0.09423178     0.14300
C1737       C  0.41075059  0.10867949  0.13264190    -0.05700
C1738       C  0.43004426  0.13380161  0.11089889    -0.05600
C1739       C  0.41178735  0.15415587  0.08417809    -0.23800
C1740       C  0.37408710  0.14863763  0.07768493     0.18400
C1741       C  0.35438262  0.12375525  0.09974026     0.15600
C1742       C  0.37260836  0.10474314  0.12784049    -0.18800
C1743       C  0.31712261  0.11715791  0.09223959    -0.20700
C1744       C  0.30037398  0.13229864  0.06129388    -0.13200
C1745       C  0.32042806  0.15468215  0.03686097     0.03500
C1746       C  0.35637697  0.16561068  0.04793966    -0.25400
H1747       H  0.45937471  0.13748609  0.11448933     0.08500
H1748       H  0.42745467  0.17300658  0.06749683     0.12100
H1749       H  0.35756782  0.08534876  0.14451790     0.12100
H1750       H  0.30121990  0.09897628  0.10943113     0.11800
H1751       H  0.27175508  0.12561358  0.05661097     0.12400
H1752       H  0.37188048  0.18416898  0.03076402     0.14300
C1753       C  0.82597226  0.25245536  0.49999378    -0.05700
C1754       C  0.80551683  0.26965934  0.47244479    -0.05600
C1755       C  0.76905005  0.25978668  0.46577919    -0.23800
C1756       C  0.75212137  0.23266038  0.48675497     0.18400
C1757       C  0.77213548  0.21506752  0.51468052     0.15600
C1758       C  0.80918555  0.22499784  0.52115207    -0.18800
C1759       C  0.75450557  0.18805913  0.53552087    -0.20700
C1760       C  0.71669279  0.18153474  0.53137356    -0.13200
C1761       C  0.69578812  0.20226777  0.50651156     0.03500
C1762       C  0.71485291  0.22447273  0.48147051    -0.25400
H1763       H  0.81806556  0.29050099  0.45550977     0.08500
H1764       H  0.75398104  0.27365560  0.44441302     0.12100
H1765       H  0.82506205  0.21089738  0.54178133     0.12100
H1766       H  0.76960877  0.17307007  0.55604643     0.11800
H1767       H  0.70396707  0.16124406  0.54867366     0.12400
H1768       H  0.69961333  0.23917275  0.46079571     0.14300
C1769       C  0.58937967  0.09815453  0.37231209    -0.05700
C1770       C  0.60563889  0.07765733  0.40030310    -0.05600
C1771       C  0.62470612  0.09470045  0.42946354    -0.23800
C1772       C  0.62677165  0.13282326  0.43222016     0.18400
C1773       C  0.61073950  0.15402194  0.40436558     0.15600
C1774       C  0.59297428  0.13659087  0.37395925    -0.18800
C1775       C  0.61178916  0.19214597  0.40820697    -0.20700
C1776       C  0.62595967  0.20878659  0.44037304    -0.13200
C1777       C  0.64012695  0.18782019  0.46952787     0.03500
C1778       C  0.64301498  0.14989003  0.46333436    -0.25400
H1779       H  0.60367791  0.04817230  0.39952572     0.08500
H1780       H  0.63675460  0.07796423  0.45060649     0.12100
H1781       H  0.58047435  0.15280834  0.35263897     0.12100
H1782       H  0.60044820  0.20911271  0.38685855     0.11800
H1783       H  0.62564978  0.23816404  0.44216080     0.12400
H1784       H  0.65535164  0.13324245  0.48441068     0.14300
C1785       C  0.64226974  0.24489946  0.51279132    -0.05700
C1786       C  0.66720271  0.27247562  0.52593010    -0.05600
C1787       C  0.65622181  0.30807926  0.53209679    -0.23800
C1788       C  0.61962411  0.31713658  0.52727925     0.18400
C1789       C  0.59366273  0.28952914  0.51714833     0.15600
C1790       C  0.60502178  0.25390243  0.51015705    -0.18800
C1791       C  0.55675103  0.29818761  0.51342883    -0.20700
C1792       C  0.54605307  0.33414895  0.51756940    -0.13200
C1793       C  0.57188795  0.36212498  0.52584061     0.03500
C1794       C  0.60862896  0.35340735  0.53163872    -0.25400
H1795       H  0.69535927  0.26688343  0.53262802     0.08500
H1796       H  0.67641109  0.32847982  0.54105940     0.12100
H1797       H  0.58484776  0.23300657  0.50240655     0.12100
H1798       H  0.53634253  0.27743358  0.50594816     0.11800
H1799       H  0.51766067  0.34054782  0.51239119     0.12400
H1800       H  0.62877351  0.37497192  0.53728891     0.14300
C1801       C  0.19026244  0.02851517  0.69846338    -0.05700
C1802       C  0.20396454  0.05878747  0.71919524    -0.05600
C1803       C  0.23977880  0.06041768  0.73258318    -0.23800
C1804       C  0.26285352  0.03148002  0.72639885     0.18400
C1805       C  0.25006737  0.00128093  0.70518716     0.15600
C1806       C  0.21424504  0.00025209  0.69076691    -0.18800
C1807       C  0.27302269  0.97199922  0.69960879    -0.20700
C1808       C  0.30821769  0.97261402  0.71483351    -0.13200
C1809       C  0.32135057  0.00272219  0.73560562     0.03500
C1810       C  0.29845217  0.03215137  0.74128458    -0.25400
H1811       H  0.18615299  0.08084634  0.72601217     0.08500
H1812       H  0.24903588  0.08382219  0.74870475     0.12100
H1813       H  0.20480108  0.97647713  0.67543208     0.12100
H1814       H  0.26379165  0.94861214  0.68345989     0.11800
H1815       H  0.32561972  0.94990239  0.70923761     0.12400
H1816       H  0.30840091  0.05560437  0.75698360     0.14300
C1817       C  0.79704952  0.01193587  0.68556658    -0.05700
C1818       C  0.77780312  0.98148489  0.66974268    -0.05600
C1819       C  0.74036554  0.97451410  0.67636615    -0.23800
C1820       C  0.72023026  0.99857528  0.69753253     0.18400
C1821       C  0.73754092  0.03148089  0.70901444     0.15600
C1822       C  0.77467752  0.03854313  0.70136121    -0.18800
C1823       C  0.71775600  0.05680042  0.72874464    -0.20700
C1824       C  0.68137733  0.04945844  0.73766174    -0.13200
C1825       C  0.66325935  0.01671790  0.72687137     0.03500
C1826       C  0.68306763  0.99116583  0.70650670    -0.25400
H1827       H  0.79062227  0.96265706  0.65184407     0.08500
H1828       H  0.72725935  0.95006955  0.66506000     0.12100
H1829       H  0.78609861  0.06515072  0.70814332     0.12100
H1830       H  0.73060490  0.08226697  0.73779246     0.11800
H1831       H  0.66730112  0.06981923  0.75317018     0.12400
H1832       H  0.66954615  0.96614024  0.69712908     0.14300
C1833       C  0.40985536  0.10795547  0.63862585    -0.05700
C1834       C  0.42196843  0.14451326  0.64023049    -0.05600
C1835       C  0.41125231  0.16913269  0.61323151    -0.23800
C1836       C  0.38734681  0.15781210  0.58472935     0.18400
C1837       C  0.37347620  0.12149955  0.58411735     0.15600
C1838       C  0.38537071  0.09655258  0.61065365    -0.18800
C1839       C  0.34839017  0.11062305  0.55668734    -0.20700
C1840       C  0.33753100  0.13522544  0.52986325    -0.13200
C1841       C  0.35196206  0.17138802  0.52895036     0.03500
C1842       C  0.37744514  0.18211705  0.55675752    -0.25400
H1843       H  0.44094489  0.15365798  0.66165287     0.08500
H1844       H  0.42189445  0.19693510  0.61449440     0.12100
H1845       H  0.37577731  0.06836640  0.60954103     0.12100
H1846       H  0.33713997  0.08303086  0.55591589     0.11800
H1847       H  0.31788162  0.12588966  0.50914662     0.12400
H1848       H  0.39016098  0.20897207  0.55691307     0.14300
C1849       C  0.63611077  0.18462034  0.54020860    -0.05700
C1850       C  0.64807802  0.19340436  0.57632295    -0.05600
C1851       C  0.63234594  0.17655148  0.60679450    -0.23800
C1852       C  0.60334644  0.15115743  0.60221394     0.18400
C1853       C  0.58923859  0.14413840  0.56661485     0.15600
C1854       C  0.60496682  0.16128263  0.53629538    -0.18800
C1855       C  0.55966530  0.11967411  0.56160727    -0.20700
C1856       C  0.54526046  0.10089070  0.59128417    -0.13200
C1857       C  0.55986930  0.10614762  0.62691213     0.03500
C1858       C  0.58840665  0.13233582  0.63233609    -0.25400
H1859       H  0.67017359  0.21317527  0.58093281     0.08500
H1860       H  0.64308458  0.18319196  0.63388785     0.12100
H1861       H  0.59203333  0.15666736  0.50982029     0.12100
H1862       H  0.54817175  0.11434064  0.53451966     0.11800
H1863       H  0.52286447  0.08161933  0.58600619     0.12400
H1864       H  0.59970995  0.13721421  0.65957649     0.14300
C1865       C  0.55973395  0.92193554  0.62105253    -0.05700
C1866       C  0.53687866  0.91105640  0.59150505    -0.05600
C1867       C  0.55055743  0.89044950  0.56284945    -0.23800
C1868       C  0.58753908  0.88118493  0.56288891     0.18400
C1869       C  0.61088561  0.89277721  0.59202641     0.15600
C1870       C  0.59670891  0.91245886  0.62131219    -0.18800
C1871       C  0.64817583  0.88527092  0.59092664    -0.20700
C1872       C  0.66214060  0.86559688  0.56174194    -0.13200
C1873       C  0.63881130  0.85106231  0.53377112     0.03500
C1874       C  0.60153659  0.86062257  0.53421070    -0.25400
H1875       H  0.50825864  0.91799750  0.59091980     0.08500
H1876       H  0.53228347  0.88194442  0.54058454     0.12100
H1877       H  0.61458262  0.92121702  0.64383274     0.12100
H1878       H  0.66673970  0.89517576  0.61238573     0.11800
H1879       H  0.69136920  0.86243270  0.56136519     0.12400
H1880       H  0.58321511  0.85132876  0.51227741     0.14300
C1881       C  0.35560514  0.82933875  0.53718345    -0.05700
C1882       C  0.37812606  0.81024887  0.56187270    -0.05600
C1883       C  0.39301973  0.82777923  0.59311687    -0.23800
C1884       C  0.38542464  0.86440346  0.60033339     0.18400
C1885       C  0.35992201  0.88243600  0.57788960     0.15600
C1886       C  0.34449549  0.86452451  0.54743250    -0.18800
C1887       C  0.35239440  0.91914344  0.58437996    -0.20700
C1888       C  0.37184772  0.93863314  0.61145894    -0.13200
C1889       C  0.39816443  0.92133895  0.63301286     0.03500
C1890       C  0.40401981  0.88392549  0.62838026    -0.25400
H1891       H  0.38595663  0.78263860  0.55642783     0.08500
H1892       H  0.41187491  0.81326298  0.61062231     0.12100
H1893       H  0.32677223  0.87958265  0.52918827     0.12100
H1894       H  0.33268358  0.93318937  0.56743225     0.11800
H1895       H  0.36666092  0.96729438  0.61539284     0.12400
H1896       H  0.42422810  0.87061293  0.64540389     0.14300
C1897       C  0.49392173  0.17828630  0.77469359    -0.05700
C1898       C  0.52455178  0.19410632  0.79311000    -0.05600
C1899       C  0.52493892  0.23080795  0.80371234    -0.23800
C1900       C  0.49499517  0.25265109  0.79543739     0.18400
C1901       C  0.46424982  0.23695190  0.77680799     0.15600
C1902       C  0.46368356  0.19993649  0.76696921    -0.18800
C1903       C  0.43457448  0.25854542  0.76799687    -0.20700
C1904       C  0.43586667  0.29562155  0.77607391    -0.13200
C1905       C  0.46683083  0.31264279  0.79345843     0.03500
C1906       C  0.49562141  0.28998248  0.80474848    -0.25400
H1907       H  0.54801701  0.17788178  0.79993872     0.08500
H1908       H  0.54884336  0.24218870  0.81797816     0.12100
H1909       H  0.43988452  0.18810135  0.75283704     0.12100
H1910       H  0.41064003  0.24697180  0.75391974     0.11800
H1911       H  0.41286794  0.31146073  0.76717033     0.12400
H1912       H  0.51891365  0.30091528  0.82008414     0.14300
C1913       C  0.49170126  0.70574713  0.80195468    -0.05700
C1914       C  0.52225768  0.72565834  0.81736321    -0.05600
C1915       C  0.52876408  0.76240788  0.80962559    -0.23800
C1916       C  0.50499033  0.78105963  0.78657470     0.18400
C1917       C  0.47336819  0.76270701  0.77240103     0.15600
C1918       C  0.46653675  0.72579644  0.78075853    -0.18800
C1919       C  0.44951652  0.78131339  0.74915020    -0.20700
C1920       C  0.45638766  0.81792502  0.74089494    -0.13200
C1921       C  0.48742711  0.83673608  0.75540871     0.03500
C1922       C  0.51206528  0.81788062  0.77782201    -0.25400
H1923       H  0.54263746  0.71318537  0.83456693     0.08500
H1924       H  0.55291931  0.77608236  0.82125483     0.12100
H1925       H  0.44338076  0.71164052  0.76772854     0.12100
H1926       H  0.42526792  0.76769918  0.73769540     0.11800
H1927       H  0.43689053  0.83187026  0.72362845     0.12400
H1928       H  0.53574317  0.83221071  0.78968180     0.14300
C1929       C  0.41259052  0.08395826  0.88185544    -0.05700
C1930       C  0.42661235  0.08009723  0.91769790    -0.05600
C1931       C  0.40919698  0.09575668  0.94729831    -0.23800
C1932       C  0.37756221  0.11592513  0.94170084     0.18400
C1933       C  0.36385469  0.12103575  0.90585340     0.15600
C1934       C  0.38125018  0.10487688  0.87615687    -0.18800
C1935       C  0.33272275  0.14183095  0.90038474    -0.20700
C1936       C  0.31539163  0.15743043  0.93014470    -0.13200
C1937       C  0.32800844  0.15212748  0.96656498     0.03500
C1938       C  0.35912300  0.13030098  0.97157348    -0.25400
H1939       H  0.45098045  0.06467799  0.92300583     0.08500
H1940       H  0.42037852  0.09188423  0.97463121     0.12100
H1941       H  0.37016407  0.10835932  0.84872559     0.12100
H1942       H  0.32171093  0.14606629  0.87305385     0.11800
H1943       H  0.29126961  0.17320517  0.92480552     0.12400
H1944       H  0.36889304  0.12275646  0.99836062     0.14300
C1945       C  0.31679997  0.86403726  0.96097861    -0.05700
C1946       C  0.29777523  0.88519038  0.93491833    -0.05600
C1947       C  0.31565220  0.90041638  0.90487568    -0.23800
C1948       C  0.35344389  0.89699626  0.90112572     0.18400
C1949       C  0.37308626  0.87610527  0.92673942     0.15600
C1950       C  0.35443244  0.85834739  0.95512754    -0.18800
C1951       C  0.41137602  0.87511284  0.92482582    -0.20700
C1952       C  0.43003109  0.89535518  0.89826883    -0.13200
C1953       C  0.41061412  0.91563548  0.87225916     0.03500
C1954       C  0.37220244  0.91566872  0.87332585    -0.25400
H1955       H  0.26954444  0.89206494  0.93824333     0.08500
H1956       H  0.30024811  0.91684593  0.88578043     0.12100
H1957       H  0.36987047  0.84265364  0.97484546     0.12100
H1958       H  0.42696716  0.85960484  0.94456042     0.11800
H1959       H  0.45962144  0.89488144  0.89775086     0.12400
H1960       H  0.35712257  0.93165255  0.85355120     0.14300
C1961       C  0.59339008  0.93040691  0.86442456    -0.05700
C1962       C  0.62836201  0.94642274  0.86868344    -0.05600
C1963       C  0.65304817  0.93280549  0.89437689    -0.23800
C1964       C  0.64311701  0.90273739  0.91596737     0.18400
C1965       C  0.60787659  0.88647758  0.91189857     0.15600
C1966       C  0.58302141  0.90055509  0.88613621    -0.18800
C1967       C  0.59792090  0.85704777  0.93422657    -0.20700
C1968       C  0.62228688  0.84446676  0.96097085    -0.13200
C1969       C  0.65768864  0.86029305  0.96562714     0.03500
C1970       C  0.66763215  0.88955204  0.94227106    -0.25400
H1971       H  0.63639926  0.96973643  0.85229539     0.08500
H1972       H  0.67986987  0.94582961  0.89740174     0.12100
H1973       H  0.55576263  0.88849524  0.88298387     0.12100
H1974       H  0.57088881  0.84441331  0.93174184     0.11800
H1975       H  0.61308091  0.82298583  0.97911776     0.12400
H1976       H  0.69346929  0.90419656  0.94572960     0.14300
C1977       C  0.67053476  0.15273979  0.96281971    -0.05700
C1978       C  0.68496412  0.15763701  0.92740741    -0.05600
C1979       C  0.66613986  0.14453424  0.89624122    -0.23800
C1980       C  0.63160692  0.12767692  0.89944141     0.18400
C1981       C  0.61517155  0.12618943  0.93409603     0.15600
C1982       C  0.63414611  0.13940899  0.96508511    -0.18800
C1983       C  0.58021074  0.11054632  0.93761217    -0.20700
C1984       C  0.56248245  0.09454858  0.90749857    -0.13200
C1985       C  0.57924960  0.09394290  0.87315295     0.03500
C1986       C  0.61340169  0.11175008  0.86892035    -0.25400
H1987       H  0.71190112  0.16996918  0.92406807     0.08500
H1988       H  0.67891493  0.14694795  0.86981182     0.12100
H1989       H  0.62012187  0.13874469  0.99083809     0.12100
H1990       H  0.56698405  0.10969218  0.96390601     0.11800
H1991       H  0.53572674  0.08194303  0.91136414     0.12400
H1992       H  0.62636337  0.11190463  0.84247821     0.14300
loop_ 
_geom_bond_atom_site_label_1 
_geom_bond_atom_site_label_2 
_geom_bond_distance 
_geom_bond_site_symmetry_2 
_ccdc_geom_bond_type 
O1          Zr37   2.417       .  S
O1           C12   1.290       .  A
O2          Zr36   2.429       .  S
O2           C13   1.292       .  A
O3           Zr9   2.443       .  S
O3           C14   1.295       .  A
O4           Zr9   2.443       .  S
O4           C15   1.293       .  A
O5          Zr39   2.451       .  S
O5           C15   1.295       .  A
O6          Zr38   2.483       .  S
O6           C14   1.300   1_565  A
O7           Zr9   2.462       .  S
O7           C13   1.296       .  A
O8           Zr9   2.450       .  S
O8           C12   1.294       .  A
Zr9          O10   2.338       .  S
Zr9          O11   2.349       .  S
Zr9          O19   2.346       .  S
Zr9          O17   2.349       .  S
O10         Zr36   2.341       .  S
O10         Zr39   2.340       .  S
O11         Zr37   2.356       .  S
O11         Zr38   2.348   1_545  S
C12        C1985   1.476       .  S
C13        C1857   1.491       .  S
C14        C1825   1.502       .  S
C15        C1897   1.483       .  S
H16          O17   0.966       .  S
O17         Zr36   2.342       .  S
O17         Zr38   2.355   1_545  S
H18          O19   0.965       .  S
O19         Zr37   2.334       .  S
O19         Zr39   2.331       .  S
O20         Zr36   2.447   1_565  S
O20          C43   1.294       .  A
O21         Zr37   2.460   1_565  S
O21          C44   1.295       .  A
O22         Zr38   2.437       .  S
O22          C45   1.293       .  A
O23         Zr39   2.440       .  S
O23          C46   1.292       .  A
O24         Zr39   2.442       .  S
O24          C47   1.294       .  A
O25         Zr38   2.445       .  S
O25          C48   1.293       .  A
O26         Zr40   2.416       .  S
O26          C49   1.289       .  A
O27         Zr40   2.421       .  S
O27          C50   1.290   1_565  A
O28         Zr38   2.478       .  S
O28          C49   1.300       .  A
O29         Zr39   2.447       .  S
O29          C50   1.295       .  A
O30         Zr36   2.442   1_565  S
O30          C45   1.294       .  A
O31         Zr37   2.430   1_565  S
O31          C48   1.290       .  A
O32         Zr37   2.437       .  S
O32          C47   1.293       .  A
O33         Zr36   2.449       .  S
O33          C46   1.294       .  A
O34         Zr40   2.418       .  S
O34          C43   1.287       .  A
O35         Zr40   2.434       .  S
O35          C44   1.290       .  A
Zr36         O42   2.338   1_545  S
Zr36         O54   2.320       .  S
Zr37         O41   2.337       .  S
Zr37         O52   2.322   1_545  S
Zr38         O42   2.347       .  S
Zr38         O52   2.354       .  S
Zr39         O41   2.351       .  S
Zr39         O54   2.344       .  S
Zr40         O41   2.333   1_565  S
Zr40         O42   2.335       .  S
Zr40         O54   2.343   1_565  S
Zr40         O52   2.338       .  S
C43        C1889   1.462       .  S
C44        C1953   1.479       .  S
C45        C1865   1.474       .  S
C46        C1833   1.473       .  S
C47        C1929   1.484       .  S
C48        C1961   1.463       .  S
C49        C1921   1.481       .  S
C50        C1809   1.473       .  S
H51          O52   0.965       .  S
H53          O54   0.964       .  S
C55        C1761   1.550       .  S
C55        C1777   1.567       .  S
C55        C1785   1.561       .  S
C55        C1849   1.557       .  S
O56         Zr92   2.458       .  S
O56          C67   1.295       .  A
O57         Zr91   2.421       .  S
O57          C68   1.290       .  A
O58         Zr64   2.456       .  S
O58          C69   1.297       .  A
O59         Zr64   2.445   1_565  S
O59          C70   1.293       .  A
O60         Zr94   2.447       .  S
O60          C70   1.294       .  A
O61         Zr93   2.438       .  S
O61          C69   1.292       .  A
O62         Zr64   2.486   1_565  S
O62          C68   1.302       .  A
O63         Zr64   2.470       .  S
O63          C67   1.299       .  A
Zr64         O65   2.352   1_545  S
Zr64         O66   2.349       .  S
Zr64         O74   2.350       .  S
Zr64         O72   2.346       .  S
O65         Zr91   2.342       .  S
O65         Zr94   2.344       .  S
O66         Zr92   2.350       .  S
O66         Zr93   2.351       .  S
C67        C1769   1.495       .  S
C68        C1617   1.497       .  S
C69        C1641   1.479       .  S
C70        C1633   1.471       .  S
H71          O72   0.966       .  S
O72         Zr91   2.357   1_545  S
O72         Zr93   2.358       .  S
H73          O74   0.967       .  S
O74         Zr92   2.335       .  S
O74         Zr94   2.343   1_545  S
O75         Zr91   2.435       .  S
O75          C98   1.291       .  A
O76         Zr92   2.448       .  S
O76          C99   1.292       .  A
O77         Zr93   2.458       .  S
O77         C100   1.296       .  A
O78         Zr94   2.413       .  S
O78         C101   1.288       .  A
O79         Zr94   2.444       .  S
O79         C102   1.292   1_565  A
O80         Zr93   2.471       .  S
O80         C103   1.300       .  A
O81         Zr95   2.468       .  S
O81         C104   1.297       .  A
O82         Zr95   2.416   1_565  S
O82         C105   1.289       .  A
O83         Zr93   2.444       .  S
O83         C104   1.292       .  A
O84         Zr94   2.464       .  S
O84         C105   1.297       .  A
O85         Zr91   2.463       .  S
O85         C100   1.298   1_565  A
O86         Zr92   2.391       .  S
O86         C103   1.284       .  A
O87         Zr92   2.442       .  S
O87         C102   1.291       .  A
O88         Zr91   2.491       .  S
O88         C101   1.301       .  A
O89         Zr95   2.440   1_565  S
O89          C98   1.292       .  A
O90         Zr95   2.437       .  S
O90          C99   1.292       .  A
Zr91         O97   2.355   1_565  S
Zr91        O109   2.327       .  S
Zr92         O96   2.330       .  S
Zr92        O107   2.356       .  S
Zr93         O97   2.352       .  S
Zr93        O107   2.349       .  S
Zr94         O96   2.327   1_565  S
Zr94        O109   2.339       .  S
Zr95         O96   2.351       .  S
Zr95         O97   2.342       .  S
Zr95        O109   2.334   1_545  S
Zr95        O107   2.316       .  S
C98        C1729   1.467       .  S
C99        C1697   1.474       .  S
C100       C1585   1.498       .  S
C101       C1681   1.490       .  S
C102       C1601   1.473       .  S
C103       C1657   1.471       .  S
C104       C1737   1.482       .  S
C105       C1713   1.475       .  S
H106        O107   0.965       .  S
H108        O109   0.965       .  S
C110       C1545   1.554   1_556  S
C110       C1561   1.556   1_556  S
C110       C1721   1.552   1_556  S
C110       C1945   1.557       .  S
C111       C1521   1.550       .  S
C111       C1537   1.543   1_554  S
C111       C1705   1.553       .  S
C111       C1969   1.555   1_554  S
C112       C1481   1.561       .  S
C112       C1497   1.554       .  S
C112       C1625   1.559       .  S
C112       C1873   1.555       .  S
C113       C1449   1.561       .  S
C113       C1473   1.562       .  S
C113       C1745   1.563   1_556  S
C113       C1937   1.563       .  S
C114       C1417   1.545       .  S
C114       C1441   1.546   1_556  S
C114       C1689   1.558   1_556  S
C114       C1977   1.552       .  S
C115       C1393   1.570       .  S
C115       C1401   1.561       .  S
C115       C1649   1.560       .  S
C115       C1841   1.559       .  S
C116       C1353   1.560       .  S
C116       C1369   1.565       .  S
C116       C1609   1.570       .  S
C116       C1881   1.551       .  S
O117       Zr153   2.459       .  S
O117        C128   1.297       .  A
O118       Zr152   2.469       .  S
O118        C129   1.297   1_455  A
O119       Zr125   2.444       .  S
O119        C130   1.293       .  A
O120       Zr125   2.424       .  S
O120        C131   1.290       .  A
O121       Zr155   2.489       .  S
O121        C131   1.303       .  A
O122       Zr154   2.424   1_655  S
O122        C130   1.290       .  A
O123       Zr125   2.456       .  S
O123        C129   1.294       .  A
O124       Zr125   2.467       .  S
O124        C128   1.298       .  A
Zr125       O126   2.351       .  S
Zr125       O127   2.342       .  S
Zr125       O135   2.347       .  S
Zr125       O133   2.347       .  S
O126       Zr152   2.338   1_655  S
O126       Zr155   2.351       .  S
O127       Zr153   2.337       .  S
O127       Zr154   2.339   1_655  S
C128       C1489   1.498       .  S
C129       C1217   1.484       .  S
C130       C1257   1.466       .  S
C131       C1321   1.500       .  S
H132        O133   0.966       .  S
O133       Zr152   2.342   1_655  S
O133       Zr154   2.335   1_655  S
H134        O135   0.965       .  S
O135       Zr153   2.360       .  S
O135       Zr155   2.333       .  S
O136       Zr152   2.434       .  S
O136        C159   1.292       .  A
O137       Zr153   2.489       .  S
O137        C160   1.302   1_655  A
O138       Zr154   2.456       .  S
O138        C161   1.295       .  A
O139       Zr155   2.465   1_455  S
O139        C162   1.296       .  A
O140       Zr155   2.457       .  S
O140        C163   1.298       .  A
O141       Zr154   2.464   1_655  S
O141        C164   1.296       .  A
O142       Zr156   2.454       .  S
O142        C165   1.294       .  A
O143       Zr156   2.460       .  S
O143        C166   1.295       .  A
O144       Zr154   2.424       .  S
O144        C165   1.290       .  A
O145       Zr155   2.445   1_455  S
O145        C166   1.295       .  A
O146       Zr152   2.422       .  S
O146        C161   1.289       .  A
O147       Zr153   2.438       .  S
O147        C164   1.291       .  A
O148       Zr153   2.410       .  S
O148        C163   1.288       .  A
O149       Zr152   2.436       .  S
O149        C162   1.292       .  A
O150       Zr156   2.447       .  S
O150        C159   1.294       .  A
O151       Zr156   2.456       .  S
O151        C160   1.295       .  A
Zr152       O158   2.337       .  S
Zr152       O170   2.348       .  S
Zr153       O157   2.347       .  S
Zr153       O168   2.345   1_655  S
Zr154       O158   2.335       .  S
Zr154       O168   2.343       .  S
Zr155       O157   2.361       .  S
Zr155       O170   2.337   1_655  S
Zr156       O157   2.343   1_455  S
Zr156       O158   2.342       .  S
Zr156       O170   2.352       .  S
Zr156       O168   2.358       .  S
C159       C1361   1.478       .  S
C160       C1201   1.507       .  S
C161       C1241   1.475       .  S
C162       C1337   1.480       .  S
C163       C1313   1.472       .  S
C164       C1273   1.480       .  S
C165       C1225   1.473       .  S
C166       C1297   1.484       .  S
H167        O168   0.966       .  S
H169        O170   0.965       .  S
O171       Zr207   2.471       .  S
O171        C182   1.298       .  A
O172       Zr206   2.462       .  S
O172        C183   1.297   1_455  A
O173       Zr179   2.447       .  S
O173        C184   1.292       .  A
O174       Zr179   2.444       .  S
O174        C185   1.292       .  A
O175       Zr209   2.424       .  S
O175        C185   1.290       .  A
O176       Zr208   2.442       .  S
O176        C184   1.293       .  A
O177       Zr179   2.432       .  S
O177        C183   1.291       .  A
O178       Zr179   2.408       .  S
O178        C182   1.288       .  A
Zr179       O180   2.328       .  S
Zr179       O181   2.343       .  S
Zr179       O189   2.343       .  S
Zr179       O187   2.330       .  S
O180       Zr206   2.345   1_655  S
O180       Zr209   2.341       .  S
O181       Zr207   2.348       .  S
O181       Zr208   2.329       .  S
C182       C1753   1.473       .  S
C183       C1033   1.486       .  S
C184       C1065   1.477       .  S
C185       C1161   1.477       .  S
H186        O187   0.965       .  S
O187       Zr206   2.345   1_655  S
O187       Zr208   2.338       .  S
H188        O189   0.965       .  S
O189       Zr207   2.342       .  S
O189       Zr209   2.305       .  S
O190       Zr206   2.448       .  S
O190        C213   1.295       .  A
O191       Zr207   2.462       .  S
O191        C214   1.298   1_655  A
O192       Zr208   2.420   1_455  S
O192        C215   1.290       .  A
O193       Zr209   2.439   1_455  S
O193        C216   1.292       .  A
O194       Zr209   2.481       .  S
O194        C217   1.299       .  A
O195       Zr208   2.444       .  S
O195        C218   1.293       .  A
O196       Zr210   2.485       .  S
O196        C219   1.300       .  A
O197       Zr210   2.445       .  S
O197        C220   1.294       .  A
O198       Zr208   2.431   1_455  S
O198        C219   1.293       .  A
O199       Zr209   2.391   1_455  S
O199        C220   1.284       .  A
O200       Zr206   2.464       .  S
O200        C215   1.297       .  A
O201       Zr207   2.421       .  S
O201        C218   1.288       .  A
O202       Zr207   2.450       .  S
O202        C217   1.293       .  A
O203       Zr206   2.444       .  S
O203        C216   1.293       .  A
O204       Zr210   2.475       .  S
O204        C213   1.300       .  A
O205       Zr210   2.459       .  S
O205        C214   1.296       .  A
Zr206       O212   2.347       .  S
Zr206       O224   2.363       .  S
Zr207       O211   2.327   1_655  S
Zr207       O222   2.362   1_655  S
Zr208       O212   2.343   1_655  S
Zr208       O222   2.337   1_655  S
Zr209       O211   2.336   1_655  S
Zr209       O224   2.357   1_655  S
Zr210       O211   2.356       .  S
Zr210       O212   2.342       .  S
Zr210       O224   2.363       .  S
Zr210       O222   2.360       .  S
C213       C1385   1.497       .  S
C214       C1049   1.495       .  S
C215       C1121   1.485       .  S
C216       C1177   1.466       .  S
C217       C1145   1.494       .  S
C218       C1081   1.460       .  S
C219       C1105   1.501       .  S
C220       C1129   1.455       .  S
H221        O222   0.966       .  S
H223        O224   0.965       .  S
C225       C1001   1.540       .  S
C225       C1017   1.543       .  S
C225       C1089   1.551       .  S
C225       C1265   1.547       .  S
C226        C969   1.557       .  S
C226        C985   1.556       .  S
C226       C1097   1.569       .  S
C226       C1249   1.557       .  S
C227        C961   1.551       .  S
C227       C1169   1.555       .  S
C227       C1305   1.552   1_545  S
C227       C1593   1.548       .  S
C228        C945   1.587       .  S
C228       C1153   1.574       .  S
C228       C1329   1.590   1_545  S
C228       C1817   1.588       .  S
C229        C905   1.562       .  S
C229        C929   1.563       .  S
C229       C1073   1.552       .  S
C229       C1281   1.568       .  S
C230        C881   1.550       .  S
C230        C897   1.547       .  S
C230       C1113   1.552       .  S
C230       C1233   1.556       .  S
C231        C857   1.548       .  S
C231       C1185   1.555       .  S
C231       C1289   1.561   1_545  S
C231       C1577   1.561       .  S
C232        C849   1.560       .  S
C232       C1137   1.550       .  S
C232       C1345   1.570   1_545  S
C232       C1801   1.547       .  S
O233       Zr269   2.415       .  S
O233        C244   1.289       .  A
O234       Zr268   2.423       .  S
O234        C245   1.290       .  A
O235       Zr241   2.451       .  S
O235        C246   1.294       .  A
O236       Zr241   2.420       .  S
O236        C247   1.289       .  A
O237       Zr271   2.424   1_554  S
O237        C247   1.289       .  A
O238       Zr270   2.447   1_554  S
O238        C246   1.293       .  A
O239       Zr241   2.477       .  S
O239        C245   1.299       .  A
O240       Zr241   2.454       .  S
O240        C244   1.296   1_554  A
Zr241       O242   2.343       .  S
Zr241       O243   2.326   1_554  S
Zr241       O251   2.355   1_554  S
Zr241       O249   2.329       .  S
O242       Zr268   2.346       .  S
O242       Zr271   2.361   1_554  S
O243       Zr269   2.328       .  S
O243       Zr270   2.308       .  S
C244       C1513   1.477       .  S
C245        C913   1.489       .  S
C246        C729   1.480       .  S
C247        C825   1.447       .  S
H248        O249   0.966       .  S
O249       Zr268   2.339       .  S
O249       Zr270   2.343   1_554  S
H250        O251   0.966       .  S
O251       Zr269   2.340       .  S
O251       Zr271   2.341       .  S
O252       Zr268   2.435       .  S
O252        C275   1.290   1_554  A
O253       Zr269   2.458       .  S
O253        C276   1.297       .  A
O254       Zr270   2.397   1_554  S
O254        C277   1.287       .  A
O255       Zr271   2.451   1_554  S
O255        C278   1.296       .  A
O256       Zr271   2.517       .  S
O256        C279   1.307       .  A
O257       Zr270   2.384       .  S
O257        C280   1.282       .  A
O258       Zr272   2.475       .  S
O258        C281   1.298       .  A
O259       Zr272   2.455       .  S
O259        C282   1.295       .  A
O260       Zr270   2.446       .  S
O260        C281   1.295       .  A
O261       Zr271   2.444       .  S
O261        C282   1.293       .  A
O262       Zr268   2.443       .  S
O262        C277   1.292       .  A
O263       Zr269   2.421       .  S
O263        C280   1.290       .  A
O264       Zr269   2.417       .  S
O264        C279   1.288       .  A
O265       Zr268   2.456       .  S
O265        C278   1.295       .  A
O266       Zr272   2.404       .  S
O266        C275   1.285       .  A
O267       Zr272   2.393       .  S
O267        C276   1.284       .  A
Zr268       O274   2.338   1_554  S
Zr268       O286   2.339   1_554  S
Zr269       O273   2.327       .  S
Zr269       O284   2.332       .  S
Zr270       O274   2.320       .  S
Zr270       O284   2.345       .  S
Zr271       O273   2.330       .  S
Zr271       O286   2.362       .  S
Zr272       O273   2.349       .  S
Zr272       O274   2.331       .  S
Zr272       O286   2.340       .  S
Zr272       O284   2.337       .  S
C275       C1425   1.447       .  S
C276       C1009   1.472       .  S
C277        C713   1.473       .  S
C278        C777   1.480       .  S
C279        C809   1.506       .  S
C280        C745   1.450       .  S
C281        C769   1.502       .  S
C282        C801   1.472       .  S
H283        O284   0.967       .  S
H285        O286   0.965       .  S
O287       Zr323   2.436       .  S
O287        C298   1.293       .  A
O288       Zr322   2.418       .  S
O288        C299   1.288       .  A
O289       Zr295   2.448       .  S
O289        C300   1.293       .  A
O290       Zr295   2.450       .  S
O290        C301   1.295       .  A
O291       Zr325   2.441   1_554  S
O291        C301   1.293       .  A
O292       Zr324   2.445       .  S
O292        C300   1.294       .  A
O293       Zr295   2.454       .  S
O293        C299   1.294       .  A
O294       Zr295   2.475       .  S
O294        C298   1.299   1_554  A
Zr295       O296   2.339       .  S
Zr295       O297   2.345   1_554  S
Zr295       O305   2.351   1_554  S
Zr295       O303   2.360       .  S
O296       Zr322   2.343       .  S
O296       Zr325   2.341   1_554  S
O297       Zr323   2.350       .  S
O297       Zr324   2.345   1_556  S
C298       C1553   1.496       .  S
C299        C873   1.457       .  S
C300        C625   1.476       .  S
C301        C681   1.485       .  S
H302        O303   0.965       .  S
O303       Zr322   2.337       .  S
O303       Zr324   2.321       .  S
H304        O305   0.967       .  S
O305       Zr323   2.348       .  S
O305       Zr325   2.335       .  S
O306       Zr322   2.436       .  S
O306        C329   1.292       .  A
O307       Zr323   2.442       .  S
O307        C330   1.294       .  A
O308       Zr324   2.453       .  S
O308        C331   1.293       .  A
O309       Zr325   2.442   1_554  S
O309        C332   1.292       .  A
O310       Zr325   2.447       .  S
O310        C333   1.295       .  A
O311       Zr324   2.431   1_556  S
O311        C334   1.292       .  A
O312       Zr326   2.437       .  S
O312        C335   1.293       .  A
O313       Zr326   2.429       .  S
O313        C336   1.291       .  A
O314       Zr324   2.422   1_556  S
O314        C335   1.290       .  A
O315       Zr325   2.436       .  S
O315        C336   1.292       .  A
O316       Zr322   2.428       .  S
O316        C331   1.289       .  A
O317       Zr323   2.445       .  S
O317        C334   1.292       .  A
O318       Zr323   2.447       .  S
O318        C333   1.293       .  A
O319       Zr322   2.393       .  S
O319        C332   1.284       .  A
O320       Zr326   2.474       .  S
O320        C329   1.299   1_556  A
O321       Zr326   2.444       .  S
O321        C330   1.294       .  A
Zr322       O328   2.314       .  S
Zr322       O340   2.326       .  S
Zr323       O327   2.346       .  S
Zr323       O338   2.343       .  S
Zr324       O328   2.338       .  S
Zr324       O338   2.338   1_554  S
Zr325       O327   2.350       .  S
Zr325       O340   2.321   1_556  S
Zr326       O327   2.350       .  S
Zr326       O328   2.331   1_556  S
Zr326       O340   2.334   1_556  S
Zr326       O338   2.351       .  S
C329       C1457   1.485       .  S
C330        C977   1.486       .  S
C331        C609   1.472       .  S
C332        C697   1.452       .  S
C333        C673   1.487       .  S
C334        C633   1.475       .  S
C335        C585   1.461       .  S
C336        C657   1.465       .  S
H337        O338   0.966       .  S
H339        O340   0.964       .  S
C341        C569   1.562       .  S
C341        C641   1.560   1_655  S
C341        C817   1.583       .  S
C341       C1209   1.567       .  S
C342        C553   1.554       .  S
C342        C593   1.548   1_655  S
C342        C793   1.564       .  S
C342       C1057   1.565       .  S
C343        C537   1.567       .  S
C343        C665   1.579       .  S
C343        C753   1.542       .  S
C343       C1913   1.573       .  S
C344        C521   1.559       .  S
C344        C689   1.570       .  S
C344        C737   1.577       .  S
C344       C1673   1.560       .  S
C345        C505   1.559       .  S
C345        C601   1.559   1_655  S
C345        C785   1.555       .  S
C345       C1041   1.561       .  S
C346        C497   1.559       .  S
C346        C617   1.560   1_655  S
C346        C833   1.553       .  S
C346       C1193   1.568       .  S
C347        C473   1.551       .  S
C347        C649   1.557       .  S
C347        C761   1.572       .  S
C347       C1905   1.557       .  S
C348        C457   1.547       .  S
C348        C705   1.541       .  S
C348        C721   1.550       .  S
C348       C1665   1.541       .  S
O349       Zr385   2.483       .  S
O349        C360   1.299       .  A
O350       Zr384   2.458       .  S
O350        C361   1.294       .  A
O351       Zr357   2.479       .  S
O351        C362   1.300       .  A
O352       Zr357   2.504       .  S
O352        C363   1.304       .  A
O353       Zr387   2.399       .  S
O353        C363   1.285       .  A
O354       Zr386   2.397       .  S
O354        C362   1.286       .  A
O355       Zr357   2.394       .  S
O355        C361   1.287       .  A
O356       Zr357   2.399       .  S
O356        C360   1.285       .  A
Zr357       O358   2.327       .  S
Zr357       O359   2.333       .  S
Zr357       O367   2.336       .  S
Zr357       O365   2.359       .  S
O358       Zr384   2.339       .  S
O358       Zr387   2.327       .  S
O359       Zr385   2.320       .  S
O359       Zr386   2.334       .  S
C360       C1793   1.472       .  S
C361        C465   1.473       .  S
C362       C1409   1.484       .  S
C363        C921   1.493       .  S
H364        O365   0.965       .  S
O365       Zr384   2.344       .  S
O365       Zr386   2.343       .  S
H366        O367   0.966       .  S
O367       Zr385   2.347       .  S
O367       Zr387   2.356       .  S
O368       Zr384   2.484       .  S
O368        C391   1.299       .  A
O369       Zr385   2.449       .  S
O369        C392   1.293       .  A
O370       Zr386   2.437       .  S
O370        C393   1.291       .  A
O371       Zr387   2.487       .  S
O371        C394   1.299       .  A
O372       Zr387   2.443       .  S
O372        C395   1.293       .  A
O373       Zr386   2.441       .  S
O373        C396   1.291       .  A
O374       Zr388   2.466       .  S
O374        C397   1.296       .  A
O375       Zr388   2.456       .  S
O375        C398   1.295       .  A
O376       Zr386   2.413       .  S
O376        C397   1.286       .  A
O377       Zr387   2.418       .  S
O377        C398   1.290       .  A
O378       Zr384   2.407       .  S
O378        C393   1.288       .  A
O379       Zr385   2.418       .  S
O379        C396   1.288       .  A
O380       Zr385   2.415       .  S
O380        C395   1.290       .  A
O381       Zr384   2.364       .  S
O381        C394   1.280       .  A
O382       Zr388   2.395       .  S
O382        C391   1.284       .  A
O383       Zr388   2.406       .  S
O383        C392   1.288       .  A
Zr384       O390   2.321       .  S
Zr384       O402   2.331       .  S
Zr385       O389   2.350       .  S
Zr385       O400   2.351       .  S
Zr386       O390   2.330       .  S
Zr386       O400   2.333       .  S
Zr387       O389   2.345       .  S
Zr387       O402   2.321       .  S
Zr388       O389   2.337       .  S
Zr388       O390   2.332       .  S
Zr388       O402   2.337       .  S
Zr388       O400   2.336       .  S
C391       C1377   1.466       .  S
C392        C545   1.465       .  S
C393        C889   1.474       .  S
C394        C529   1.475       .  S
C395       C1025   1.467       .  S
C396        C481   1.456       .  S
C397        C993   1.468       .  S
C398       C1505   1.482       .  S
H399        O400   0.966       .  S
H401        O402   0.963       .  S
O403       Zr439   2.460       .  S
O403        C414   1.296       .  A
O404       Zr438   2.438   1_455  S
O404        C415   1.291       .  A
O405       Zr411   2.494       .  S
O405        C416   1.301       .  A
O406       Zr411   2.440   1_545  S
O406        C417   1.292       .  A
O407       Zr441   2.423   1_556  S
O407        C417   1.292       .  A
O408       Zr440   2.386       .  S
O408        C416   1.284   1_655  A
O409       Zr411   2.417   1_545  S
O409        C415   1.291       .  A
O410       Zr411   2.418       .  S
O410        C414   1.289   1_556  A
Zr411       O412   2.353   1_565  S
Zr411       O413   2.321       .  S
Zr411       O421   2.353   1_566  S
Zr411       O419   2.330   1_455  S
O412       Zr438   2.342   1_455  S
O412       Zr441   2.345   1_556  S
O413       Zr439   2.335   1_556  S
O413       Zr440   2.329   1_455  S
C414       C1569   1.472       .  S
C415        C841   1.479       .  S
C416        C577   1.490       .  S
C417       C1465   1.470       .  S
H418        O419   0.966       .  S
O419       Zr438   2.347   1_565  S
O419       Zr440   2.329       .  S
H420        O421   0.966       .  S
O421       Zr439   2.336   1_545  S
O421       Zr441   2.346       .  S
O422       Zr438   2.457       .  S
O422        C445   1.294       .  A
O423       Zr439   2.470   1_655  S
O423        C446   1.296       .  A
O424       Zr440   2.500       .  S
O424        C447   1.303       .  A
O425       Zr441   2.466   1_556  S
O425        C448   1.297       .  A
O426       Zr441   2.463       .  S
O426        C449   1.295       .  A
O427       Zr440   2.480   1_554  S
O427        C450   1.299       .  A
O428       Zr442   2.451   1_565  S
O428        C451   1.295       .  A
O429       Zr442   2.488       .  S
O429        C452   1.301       .  A
O430       Zr440   2.384       .  S
O430        C451   1.285   1_556  A
O431       Zr441   2.421       .  S
O431        C452   1.289   1_455  A
O432       Zr438   2.405       .  S
O432        C447   1.286   1_545  A
O433       Zr439   2.401       .  S
O433        C450   1.285   1_455  A
O434       Zr439   2.396   1_545  S
O434        C449   1.286       .  A
O435       Zr438   2.414       .  S
O435        C448   1.288   1_655  A
O436       Zr442   2.378       .  S
O436        C445   1.282   1_554  A
O437       Zr442   2.413       .  S
O437        C446   1.287   1_545  A
Zr438       O444   2.329       .  S
Zr438       O456   2.329   1_556  S
Zr439       O443   2.338   1_465  S
Zr439       O454   2.334   1_455  S
Zr440       O444   2.336   1_565  S
Zr440       O454   2.350   1_556  S
Zr441       O443   2.346   1_455  S
Zr441       O456   2.336   1_455  S
Zr442       O443   2.327       .  S
Zr442       O444   2.346   1_554  S
Zr442       O456   2.332       .  S
Zr442       O454   2.344   1_545  S
C445       C1433   1.460       .  S
C446        C953   1.468       .  S
C447        C937   1.487       .  S
C448        C561   1.482       .  S
C449        C865   1.485       .  S
C450        C489   1.468       .  S
C451       C1529   1.469       .  S
C452        C513   1.492       .  S
H453        O454   0.967       .  S
H455        O456   0.965       .  S
C457        C458   1.416       .  A
C457        C462   1.418       .  A
C458        C459   1.381       .  A
C458        H467   1.080       .  S
C459        C460   1.390       .  A
C459        H468   1.084       .  S
C460        C466   1.386       .  A
C460        C461   1.409       .  A
C461        C463   1.408       .  A
C461        C462   1.406       .  A
C462        H469   1.083       .  S
C463        C464   1.406       .  A
C463        H470   1.083       .  S
C464        C465   1.405       .  A
C464        H471   1.080       .  S
C465        C466   1.400       .  A
C466        H472   1.085       .  S
C473        C474   1.414       .  A
C473        C478   1.415       .  A
C474        C475   1.394       .  A
C474        H483   1.083       .  S
C475        C476   1.398       .  A
C475        H484   1.084       .  S
C476        C482   1.399       .  A
C476        C477   1.412       .  A
C477        C479   1.405       .  A
C477        C478   1.401       .  A
C478        H485   1.080       .  S
C479        C480   1.397       .  A
C479        H486   1.084       .  S
C480        C481   1.400       .  A
C480        H487   1.084       .  S
C481        C482   1.400       .  A
C482        H488   1.085       .  S
C489        C490   1.403   1_655  A
C489        C494   1.405       .  A
C490        C491   1.394       .  A
C490        H499   1.084       .  S
C491        C492   1.401       .  A
C491        H500   1.084       .  S
C492        C498   1.400       .  A
C492        C493   1.412   1_455  A
C493        C495   1.402       .  A
C493        C494   1.410       .  A
C494        H501   1.084       .  S
C495        C496   1.402       .  A
C495        H502   1.083       .  S
C496        C497   1.414       .  A
C496        H503   1.083       .  S
C497        C498   1.414   1_655  A
C498        H504   1.081       .  S
C505        C506   1.412   1_655  A
C505        C510   1.423       .  A
C506        C507   1.395       .  A
C506        H515   1.083       .  S
C507        C508   1.399   1_455  A
C507        H516   1.084       .  S
C508        C514   1.405       .  A
C508        C509   1.410       .  A
C509        C511   1.409       .  A
C509        C510   1.414       .  A
C510        H517   1.081       .  S
C511        C512   1.408       .  A
C511        H518   1.083       .  S
C512        C513   1.406       .  A
C512        H519   1.083       .  S
C513        C514   1.410       .  A
C514        H520   1.084   1_655  S
C521        C522   1.413       .  A
C521        C526   1.424       .  A
C522        C523   1.390       .  A
C522        H531   1.076       .  S
C523        C524   1.398       .  A
C523        H532   1.084       .  S
C524        C530   1.390       .  A
C524        C525   1.405       .  A
C525        C527   1.410       .  A
C525        C526   1.402       .  A
C526        H533   1.084       .  S
C527        C528   1.406       .  A
C527        H534   1.083       .  S
C528        C529   1.401       .  A
C528        H535   1.083       .  S
C529        C530   1.408       .  A
C530        H536   1.083       .  S
C537        C538   1.421       .  A
C537        C542   1.424       .  A
C538        C539   1.387       .  A
C538        H547   1.075       .  S
C539        C540   1.390       .  A
C539        H548   1.084       .  S
C540        C546   1.391       .  A
C540        C541   1.406       .  A
C541        C543   1.409       .  A
C541        C542   1.404       .  A
C542        H549   1.071       .  S
C543        C544   1.402       .  A
C543        H550   1.084       .  S
C544        C545   1.403       .  A
C544        H551   1.083       .  S
C545        C546   1.400       .  A
C546        H552   1.086       .  S
C553        C554   1.409       .  A
C553        C558   1.423   1_655  A
C554        C555   1.395       .  A
C554        H563   1.083       .  S
C555        C556   1.400       .  A
C555        H564   1.084       .  S
C556        C562   1.399       .  A
C556        C557   1.408   1_655  A
C557        C559   1.408       .  A
C557        C558   1.406       .  A
C558        H565   1.081       .  S
C559        C560   1.403       .  A
C559        H566   1.084       .  S
C560        C561   1.404       .  A
C560        H567   1.083       .  S
C561        C562   1.409   1_455  A
C562        H568   1.084       .  S
C569        C570   1.412       .  A
C569        C574   1.426   1_655  A
C570        C571   1.394       .  A
C570        H579   1.077       .  S
C571        C572   1.399   1_655  A
C571        H580   1.084       .  S
C572        C578   1.397   1_455  A
C572        C573   1.406       .  A
C573        C575   1.411       .  A
C573        C574   1.409       .  A
C574        H581   1.084       .  S
C575        C576   1.409       .  A
C575        H582   1.083       .  S
C576        C577   1.404       .  A
C576        H583   1.083       .  S
C577        C578   1.412   1_455  A
C578        H584   1.085       .  S
C585        C586   1.403       .  A
C585        C590   1.401       .  A
C586        C587   1.395       .  A
C586        H595   1.084       .  S
C587        C588   1.403       .  A
C587        H596   1.084       .  S
C588        C594   1.395       .  A
C588        C589   1.410       .  A
C589        C591   1.399       .  A
C589        C590   1.398       .  A
C590        H597   1.085       .  S
C591        C592   1.396       .  A
C591        H598   1.084       .  S
C592        C593   1.412       .  A
C592        H599   1.077       .  S
C593        C594   1.417       .  A
C594        H600   1.085   1_455  S
C601        C602   1.417       .  A
C601        C606   1.415       .  A
C602        C603   1.394       .  A
C602        H611   1.083   1_455  S
C603        C604   1.396       .  A
C603        H612   1.084       .  S
C604        C610   1.407       .  A
C604        C605   1.415       .  A
C605        C607   1.403       .  A
C605        C606   1.409       .  A
C606        H613   1.080       .  S
C607        C608   1.398       .  A
C607        H614   1.084       .  S
C608        C609   1.405       .  A
C608        H615   1.084       .  S
C609        C610   1.400       .  A
C610        H616   1.084       .  S
C617        C618   1.422       .  A
C617        C622   1.415       .  A
C618        C619   1.382       .  A
C618        H627   1.081       .  S
C619        C620   1.388       .  A
C619        H628   1.085       .  S
C620        C626   1.398       .  A
C620        C621   1.416       .  A
C621        C623   1.408       .  A
C621        C622   1.421       .  A
C622        H629   1.082       .  S
C623        C624   1.408       .  A
C623        H630   1.083       .  S
C624        C625   1.406       .  A
C624        H631   1.083       .  S
C625        C626   1.396       .  A
C626        H632   1.084       .  S
C633        C634   1.403       .  A
C633        C638   1.411       .  A
C634        C635   1.387       .  A
C634        H643   1.083       .  S
C635        C636   1.397       .  A
C635        H644   1.084       .  S
C636        C642   1.394       .  A
C636        C637   1.411       .  A
C637        C639   1.406       .  A
C637        C638   1.414       .  A
C638        H645   1.084       .  S
C639        C640   1.408       .  A
C639        H646   1.083       .  S
C640        C641   1.415       .  A
C640        H647   1.078       .  S
C641        C642   1.413       .  A
C642        H648   1.084       .  S
C649        C650   1.420       .  A
C649        C654   1.412       .  A
C650        C651   1.389       .  A
C650        H659   1.081       .  S
C651        C652   1.393       .  A
C651        H660   1.084       .  S
C652        C658   1.397       .  A
C652        C653   1.413       .  A
C653        C655   1.403       .  A
C653        C654   1.404       .  A
C654        H661   1.084       .  S
C655        C656   1.398       .  A
C655        H662   1.083       .  S
C656        C657   1.405       .  A
C656        H663   1.083       .  S
C657        C658   1.397       .  A
C658        H664   1.085       .  S
C665        C666   1.417       .  A
C665        C670   1.425       .  A
C666        C667   1.405       .  A
C666        H675   1.074       .  S
C667        C668   1.402       .  A
C667        H676   1.084       .  S
C668        C674   1.411       .  A
C668        C669   1.406       .  A
C669        C671   1.403       .  A
C669        C670   1.402       .  A
C670        H677   1.081       .  S
C671        C672   1.396       .  A
C671        H678   1.084       .  S
C672        C673   1.405       .  A
C672        H679   1.083       .  S
C673        C674   1.412       .  A
C674        H680   1.084       .  S
C681        C682   1.408       .  A
C681        C686   1.405       .  A
C682        C683   1.402       .  A
C682        H691   1.083       .  S
C683        C684   1.404       .  A
C683        H692   1.084       .  S
C684        C690   1.410       .  A
C684        C685   1.411       .  A
C685        C687   1.395       .  A
C685        C686   1.405       .  A
C686        H693   1.084       .  S
C687        C688   1.395       .  A
C687        H694   1.084       .  S
C688        C689   1.419       .  A
C688        H695   1.077       .  S
C689        C690   1.421       .  A
C690        H696   1.084       .  S
C697        C698   1.403       .  A
C697        C702   1.398       .  A
C698        C699   1.386       .  A
C698        H707   1.084       .  S
C699        C700   1.395       .  A
C699        H708   1.084       .  S
C700        C706   1.393       .  A
C700        C701   1.417       .  A
C701        C703   1.396       .  A
C701        C702   1.400       .  A
C702        H709   1.085       .  S
C703        C704   1.392       .  A
C703        H710   1.084       .  S
C704        C705   1.417       .  A
C704        H711   1.084       .  S
C705        C706   1.402       .  A
C706        H712   1.081       .  S
C713        C714   1.408       .  A
C713        C718   1.410       .  A
C714        C715   1.379       .  A
C714        H723   1.083       .  S
C715        C716   1.393       .  A
C715        H724   1.085       .  S
C716        C722   1.383       .  A
C716        C717   1.408       .  A
C717        C719   1.405       .  A
C717        C718   1.407       .  A
C718        H725   1.084       .  S
C719        C720   1.406       .  A
C719        H726   1.083       .  S
C720        C721   1.413       .  A
C720        H727   1.082       .  S
C721        C722   1.412       .  A
C722        H728   1.082       .  S
C729        C730   1.407       .  A
C729        C734   1.398       .  A
C730        C731   1.407       .  A
C730        H739   1.082       .  S
C731        C732   1.407       .  A
C731        H740   1.083       .  S
C732        C738   1.418       .  A
C732        C733   1.412       .  A
C733        C735   1.387       .  A
C733        C734   1.403       .  A
C734        H741   1.085       .  S
C735        C736   1.388       .  A
C735        H742   1.085       .  S
C736        C737   1.424       .  A
C736        H743   1.071       .  S
C737        C738   1.423       .  A
C738        H744   1.084       .  S
C745        C746   1.405       .  A
C745        C750   1.393       .  A
C746        C747   1.389       .  A
C746        H755   1.082       .  S
C747        C748   1.398       .  A
C747        H756   1.084       .  S
C748        C754   1.390       .  A
C748        C749   1.413       .  A
C749        C751   1.391       .  A
C749        C750   1.388       .  A
C750        H757   1.085       .  S
C751        C752   1.384       .  A
C751        H758   1.084       .  S
C752        C753   1.418       .  A
C752        H759   1.080       .  S
C753        C754   1.409       .  A
C754        H760   1.084       .  S
C761        C762   1.416       .  A
C761        C766   1.419       .  A
C762        C763   1.407       .  A
C762        H771   1.083       .  S
C763        C764   1.405       .  A
C763        H772   1.083       .  S
C764        C770   1.420       .  A
C764        C765   1.410       .  A
C765        C767   1.400       .  A
C765        C766   1.407       .  A
C766        H773   1.078       .  S
C767        C768   1.395       .  A
C767        H774   1.084       .  S
C768        C769   1.410       .  A
C768        H775   1.083       .  S
C769        C770   1.416       .  A
C770        H776   1.084       .  S
C777        C778   1.404       .  A
C777        C782   1.409       .  A
C778        C779   1.395       .  A
C778        H787   1.084       .  S
C779        C780   1.402       .  A
C779        H788   1.084       .  S
C780        C786   1.402       .  A
C780        C781   1.411       .  A
C781        C783   1.405       .  A
C781        C782   1.413       .  A
C782        H789   1.084       .  S
C783        C784   1.405       .  A
C783        H790   1.084       .  S
C784        C785   1.414       .  A
C784        H791   1.080       .  S
C785        C786   1.415       .  A
C786        H792   1.084       .  S
C793        C794   1.417       .  A
C793        C798   1.417       .  A
C794        C795   1.394       .  A
C794        H803   1.083       .  S
C795        C796   1.396       .  A
C795        H804   1.084       .  S
C796        C802   1.406       .  A
C796        C797   1.414       .  A
C797        C799   1.404       .  A
C797        C798   1.409       .  A
C798        H805   1.079       .  S
C799        C800   1.399       .  A
C799        H806   1.084       .  S
C800        C801   1.404       .  A
C800        H807   1.084       .  S
C801        C802   1.402       .  A
C802        H808   1.084       .  S
C809        C810   1.416       .  A
C809        C814   1.404       .  A
C810        C811   1.408       .  A
C810        H819   1.083       .  S
C811        C812   1.404       .  A
C811        H820   1.084       .  S
C812        C818   1.424       .  A
C812        C813   1.414       .  A
C813        C815   1.393       .  A
C813        C814   1.414       .  A
C814        H821   1.084       .  S
C815        C816   1.394       .  A
C815        H822   1.084       .  S
C816        C817   1.422       .  A
C816        H823   1.080   1_655  S
C817        C818   1.421       .  A
C818        H824   1.084       .  S
C825        C826   1.398       .  A
C825        C830   1.400       .  A
C826        C827   1.386       .  A
C826        H835   1.084       .  S
C827        C828   1.399       .  A
C827        H836   1.084       .  S
C828        C834   1.392       .  A
C828        C829   1.413       .  A
C829        C831   1.399       .  A
C829        C830   1.402       .  A
C830        H837   1.085       .  S
C831        C832   1.397       .  A
C831        H838   1.084       .  S
C832        C833   1.416       .  A
C832        H839   1.083       .  S
C833        C834   1.412       .  A
C834        H840   1.080       .  S
C841        C842   1.408       .  A
C841        C846   1.401       .  A
C842        C843   1.406       .  A
C842        H851   1.083       .  S
C843        C844   1.409       .  A
C843        H852   1.084       .  S
C844        C850   1.408       .  A
C844        C845   1.408       .  A
C845        C847   1.389       .  A
C845        C846   1.386       .  A
C846        H853   1.084   1_545  S
C847        C848   1.379       .  A
C847        H854   1.084   1_545  S
C848        C849   1.418       .  A
C848        H855   1.082   1_545  S
C849        C850   1.422       .  A
C850        H856   1.076       .  S
C857        C858   1.412   1_545  A
C857        C862   1.422       .  A
C858        C859   1.383       .  A
C858        H867   1.080       .  S
C859        C860   1.393   1_565  A
C859        H868   1.084       .  S
C860        C866   1.387       .  A
C860        C861   1.407       .  A
C861        C863   1.411       .  A
C861        C862   1.410       .  A
C862        H869   1.084       .  S
C863        C864   1.410       .  A
C863        H870   1.083       .  S
C864        C865   1.407       .  A
C864        H871   1.083       .  S
C865        C866   1.406       .  A
C866        H872   1.084   1_545  S
C873        C874   1.398       .  A
C873        C878   1.402       .  A
C874        C875   1.396       .  A
C874        H883   1.083       .  S
C875        C876   1.405       .  A
C875        H884   1.084       .  S
C876        C882   1.398       .  A
C876        C877   1.411       .  A
C877        C879   1.400       .  A
C877        C878   1.401       .  A
C878        H885   1.085       .  S
C879        C880   1.397       .  A
C879        H886   1.084       .  S
C880        C881   1.412       .  A
C880        H887   1.083       .  S
C881        C882   1.417       .  A
C882        H888   1.080       .  S
C889        C890   1.405       .  A
C889        C894   1.406       .  A
C890        C891   1.398       .  A
C890        H899   1.083       .  S
C891        C892   1.404       .  A
C891        H900   1.084       .  S
C892        C898   1.399       .  A
C892        C893   1.409       .  A
C893        C895   1.397       .  A
C893        C894   1.393       .  A
C894        H901   1.084       .  S
C895        C896   1.390       .  A
C895        H902   1.084       .  S
C896        C897   1.413       .  A
C896        H903   1.083       .  S
C897        C898   1.416       .  A
C898        H904   1.080       .  S
C905        C906   1.418       .  A
C905        C910   1.416       .  A
C906        C907   1.401       .  A
C906        H915   1.079       .  S
C907        C908   1.399       .  A
C907        H916   1.084       .  S
C908        C914   1.413       .  A
C908        C909   1.412       .  A
C909        C911   1.401       .  A
C909        C910   1.409       .  A
C910        H917   1.084       .  S
C911        C912   1.398       .  A
C911        H918   1.084       .  S
C912        C913   1.409       .  A
C912        H919   1.084       .  S
C913        C914   1.407       .  A
C914        H920   1.084       .  S
C921        C922   1.404       .  A
C921        C926   1.415       .  A
C922        C923   1.406       .  A
C922        H931   1.083       .  S
C923        C924   1.410       .  A
C923        H932   1.083       .  S
C924        C930   1.410       .  A
C924        C925   1.407       .  A
C925        C927   1.403       .  A
C925        C926   1.406       .  A
C926        H933   1.084       .  S
C927        C928   1.400       .  A
C927        H934   1.084       .  S
C928        C929   1.412       .  A
C928        H935   1.083       .  S
C929        C930   1.426       .  A
C930        H936   1.081       .  S
C937        C938   1.405       .  A
C937        C942   1.408       .  A
C938        C939   1.410       .  A
C938        H947   1.083       .  S
C939        C940   1.411       .  A
C939        H948   1.083       .  S
C940        C946   1.419       .  A
C940        C941   1.407   1_565  A
C941        C943   1.394       .  A
C941        C942   1.406   1_545  A
C942        H949   1.085   1_565  S
C943        C944   1.395       .  A
C943        H950   1.084       .  S
C944        C945   1.420       .  A
C944        H951   1.072       .  S
C945        C946   1.430   1_545  A
C946        H952   1.077       .  S
C953        C954   1.404       .  A
C953        C958   1.400   1_565  A
C954        C955   1.403       .  A
C954        H963   1.083       .  S
C955        C956   1.406       .  A
C955        H964   1.084       .  S
C956        C962   1.407       .  A
C956        C957   1.411   1_565  A
C957        C959   1.396       .  A
C957        C958   1.401       .  A
C958        H965   1.085       .  S
C959        C960   1.393       .  A
C959        H966   1.084       .  S
C960        C961   1.415       .  A
C960        H967   1.078       .  S
C961        C962   1.418   1_545  A
C962        H968   1.084       .  S
C969        C970   1.418       .  A
C969        C974   1.411       .  A
C970        C971   1.394       .  A
C970        H979   1.083       .  S
C971        C972   1.396       .  A
C971        H980   1.084       .  S
C972        C978   1.404       .  A
C972        C973   1.413       .  A
C973        C975   1.401       .  A
C973        C974   1.408       .  A
C974        H981   1.077       .  S
C975        C976   1.398       .  A
C975        H982   1.083       .  S
C976        C977   1.408       .  A
C976        H983   1.083       .  S
C977        C978   1.408       .  A
C978        H984   1.084       .  S
C985        C986   1.421       .  A
C985        C990   1.413       .  A
C986        C987   1.392       .  A
C986        H995   1.081       .  S
C987        C988   1.394       .  A
C987        H996   1.084       .  S
C988        C994   1.405       .  A
C988        C989   1.414       .  A
C989        C991   1.403       .  A
C989        C990   1.410       .  A
C990        H997   1.083       .  S
C991        C992   1.400       .  A
C991        H998   1.083       .  S
C992        C993   1.404       .  A
C992        H999   1.084       .  S
C993        C994   1.399       .  A
C994       H1000   1.085       .  S
C1001      C1002   1.416       .  A
C1001      C1006   1.409       .  A
C1002      C1003   1.389       .  A
C1002      H1011   1.083       .  S
C1003      C1004   1.393       .  A
C1003      H1012   1.084       .  S
C1004      C1010   1.399       .  A
C1004      C1005   1.414       .  A
C1005      C1007   1.398       .  A
C1005      C1006   1.402       .  A
C1006      H1013   1.081       .  S
C1007      C1008   1.393       .  A
C1007      H1014   1.084       .  S
C1008      C1009   1.410       .  A
C1008      H1015   1.083       .  S
C1009      C1010   1.399       .  A
C1010      H1016   1.084       .  S
C1017      C1018   1.414       .  A
C1017      C1022   1.413       .  A
C1018      C1019   1.388       .  A
C1018      H1027   1.083       .  S
C1019      C1020   1.395       .  A
C1019      H1028   1.084       .  S
C1020      C1026   1.394       .  A
C1020      C1021   1.412       .  A
C1021      C1023   1.404       .  A
C1021      C1022   1.402       .  A
C1022      H1029   1.082       .  S
C1023      C1024   1.399       .  A
C1023      H1030   1.083       .  S
C1024      C1025   1.403       .  A
C1024      H1031   1.083       .  S
C1025      C1026   1.401       .  A
C1026      H1032   1.085       .  S
C1033      C1034   1.408       .  A
C1033      C1038   1.406   1_655  A
C1034      C1035   1.399       .  A
C1034      H1043   1.083       .  S
C1035      C1036   1.401       .  A
C1035      H1044   1.083       .  S
C1036      C1042   1.409       .  A
C1036      C1037   1.413   1_655  A
C1037      C1039   1.396       .  A
C1037      C1038   1.409       .  A
C1038      H1045   1.084       .  S
C1039      C1040   1.396       .  A
C1039      H1046   1.084       .  S
C1040      C1041   1.421   1_455  A
C1040      H1047   1.079       .  S
C1041      C1042   1.414       .  A
C1042      H1048   1.084       .  S
C1049      C1050   1.410       .  A
C1049      C1054   1.405   1_455  A
C1050      C1051   1.410       .  A
C1050      H1059   1.083       .  S
C1051      C1052   1.409       .  A
C1051      H1060   1.084       .  S
C1052      C1058   1.418       .  A
C1052      C1053   1.411   1_455  A
C1053      C1055   1.394       .  A
C1053      C1054   1.403       .  A
C1054      H1061   1.084       .  S
C1055      C1056   1.391       .  A
C1055      H1062   1.084       .  S
C1056      C1057   1.416       .  A
C1056      H1063   1.079       .  S
C1057      C1058   1.423   1_655  A
C1058      H1064   1.084       .  S
C1065      C1066   1.402       .  A
C1065      C1070   1.410       .  A
C1066      C1067   1.392       .  A
C1066      H1075   1.082       .  S
C1067      C1068   1.400       .  A
C1067      H1076   1.084       .  S
C1068      C1074   1.397       .  A
C1068      C1069   1.411       .  A
C1069      C1071   1.406       .  A
C1069      C1070   1.412       .  A
C1070      H1077   1.084       .  S
C1071      C1072   1.406       .  A
C1071      H1078   1.083       .  S
C1072      C1073   1.413       .  A
C1072      H1079   1.080       .  S
C1073      C1074   1.414       .  A
C1074      H1080   1.085       .  S
C1081      C1082   1.399       .  A
C1081      C1086   1.404       .  A
C1082      C1083   1.389       .  A
C1082      H1091   1.083       .  S
C1083      C1084   1.400       .  A
C1083      H1092   1.084       .  S
C1084      C1090   1.394       .  A
C1084      C1085   1.412       .  A
C1085      C1087   1.403       .  A
C1085      C1086   1.408       .  A
C1086      H1093   1.084       .  S
C1087      C1088   1.403       .  A
C1087      H1094   1.083       .  S
C1088      C1089   1.412       .  A
C1088      H1095   1.083       .  S
C1089      C1090   1.414       .  A
C1090      H1096   1.082       .  S
C1097      C1098   1.414       .  A
C1097      C1102   1.418       .  A
C1098      C1099   1.411       .  A
C1098      H1107   1.082       .  S
C1099      C1100   1.408       .  A
C1099      H1108   1.083       .  S
C1100      C1106   1.420       .  A
C1100      C1101   1.409       .  A
C1101      C1103   1.397       .  A
C1101      C1102   1.401       .  A
C1102      H1109   1.083       .  S
C1103      C1104   1.392       .  A
C1103      H1110   1.084       .  S
C1104      C1105   1.411       .  A
C1104      H1111   1.083       .  S
C1105      C1106   1.417       .  A
C1106      H1112   1.083       .  S
C1113      C1114   1.416       .  A
C1113      C1118   1.410       .  A
C1114      C1115   1.399       .  A
C1114      H1123   1.083       .  S
C1115      C1116   1.400       .  A
C1115      H1124   1.083       .  S
C1116      C1122   1.410       .  A
C1116      C1117   1.413       .  A
C1117      C1119   1.396       .  A
C1117      C1118   1.400       .  A
C1118      H1125   1.081       .  S
C1119      C1120   1.390       .  A
C1119      H1126   1.084       .  S
C1120      C1121   1.409       .  A
C1120      H1127   1.083       .  S
C1121      C1122   1.408       .  A
C1122      H1128   1.084       .  S
C1129      C1130   1.406       .  A
C1129      C1134   1.393       .  A
C1130      C1131   1.392       .  A
C1130      H1139   1.084       .  S
C1131      C1132   1.398       .  A
C1131      H1140   1.084       .  S
C1132      C1138   1.397       .  A
C1132      C1133   1.414       .  A
C1133      C1135   1.391       .  A
C1133      C1134   1.396       .  A
C1134      H1141   1.085       .  S
C1135      C1136   1.388       .  A
C1135      H1142   1.084       .  S
C1136      C1137   1.420       .  A
C1136      H1143   1.078       .  S
C1137      C1138   1.408       .  A
C1138      H1144   1.085       .  S
C1145      C1146   1.406       .  A
C1145      C1150   1.410       .  A
C1146      C1147   1.406       .  A
C1146      H1155   1.083       .  S
C1147      C1148   1.407       .  A
C1147      H1156   1.083       .  S
C1148      C1154   1.417       .  A
C1148      C1149   1.411       .  A
C1149      C1151   1.402       .  A
C1149      C1150   1.416       .  A
C1150      H1157   1.084       .  S
C1151      C1152   1.403       .  A
C1151      H1158   1.084       .  S
C1152      C1153   1.417       .  A
C1152      H1159   1.078       .  S
C1153      C1154   1.424       .  A
C1154      H1160   1.084       .  S
C1161      C1162   1.406       .  A
C1161      C1166   1.409       .  A
C1162      C1163   1.391       .  A
C1162      H1171   1.084       .  S
C1163      C1164   1.399       .  A
C1163      H1172   1.084       .  S
C1164      C1170   1.396       .  A
C1164      C1165   1.412       .  A
C1165      C1167   1.405       .  A
C1165      C1166   1.408       .  A
C1166      H1173   1.084       .  S
C1167      C1168   1.404       .  A
C1167      H1174   1.083       .  S
C1168      C1169   1.412       .  A
C1168      H1175   1.082       .  S
C1169      C1170   1.412       .  A
C1170      H1176   1.083       .  S
C1177      C1178   1.402       .  A
C1177      C1182   1.400       .  A
C1178      C1179   1.398       .  A
C1178      H1187   1.084       .  S
C1179      C1180   1.405       .  A
C1179      H1188   1.084       .  S
C1180      C1186   1.405       .  A
C1180      C1181   1.413       .  A
C1181      C1183   1.398       .  A
C1181      C1182   1.405       .  A
C1182      H1189   1.084       .  S
C1183      C1184   1.396       .  A
C1183      H1190   1.083       .  S
C1184      C1185   1.413       .  A
C1184      H1191   1.083       .  S
C1185      C1186   1.419       .  A
C1186      H1192   1.081       .  S
C1193      C1194   1.421       .  A
C1193      C1198   1.419   1_655  A
C1194      C1195   1.397       .  A
C1194      H1203   1.079       .  S
C1195      C1196   1.396       .  A
C1195      H1204   1.084       .  S
C1196      C1202   1.416       .  A
C1196      C1197   1.413   1_655  A
C1197      C1199   1.405       .  A
C1197      C1198   1.423       .  A
C1198      H1205   1.084       .  S
C1199      C1200   1.408       .  A
C1199      H1206   1.083       .  S
C1200      C1201   1.412       .  A
C1200      H1207   1.083       .  S
C1201      C1202   1.410   1_455  A
C1202      H1208   1.084       .  S
C1209      C1210   1.413       .  A
C1209      C1214   1.423       .  A
C1210      C1211   1.405       .  A
C1210      H1219   1.083       .  S
C1211      C1212   1.405       .  A
C1211      H1220   1.083       .  S
C1212      C1218   1.414       .  A
C1212      C1213   1.410       .  A
C1213      C1215   1.407       .  A
C1213      C1214   1.409       .  A
C1214      H1221   1.080       .  S
C1215      C1216   1.402       .  A
C1215      H1222   1.084       .  S
C1216      C1217   1.402       .  A
C1216      H1223   1.083       .  S
C1217      C1218   1.411       .  A
C1218      H1224   1.084       .  S
C1225      C1226   1.405       .  A
C1225      C1230   1.405       .  A
C1226      C1227   1.394       .  A
C1226      H1235   1.084       .  S
C1227      C1228   1.400       .  A
C1227      H1236   1.084       .  S
C1228      C1234   1.399       .  A
C1228      C1229   1.412       .  A
C1229      C1231   1.401       .  A
C1229      C1230   1.408       .  A
C1230      H1237   1.084       .  S
C1231      C1232   1.401       .  A
C1231      H1238   1.084       .  S
C1232      C1233   1.415       .  A
C1232      H1239   1.079       .  S
C1233      C1234   1.414       .  A
C1234      H1240   1.084       .  S
C1241      C1242   1.406       .  A
C1241      C1246   1.400       .  A
C1242      C1243   1.398       .  A
C1242      H1251   1.083       .  S
C1243      C1244   1.402       .  A
C1243      H1252   1.084       .  S
C1244      C1250   1.409       .  A
C1244      C1245   1.415       .  A
C1245      C1247   1.395       .  A
C1245      C1246   1.405       .  A
C1246      H1253   1.084       .  S
C1247      C1248   1.393       .  A
C1247      H1254   1.084       .  S
C1248      C1249   1.416       .  A
C1248      H1255   1.083       .  S
C1249      C1250   1.413       .  A
C1250      H1256   1.081       .  S
C1257      C1258   1.403       .  A
C1257      C1262   1.404       .  A
C1258      C1259   1.391       .  A
C1258      H1267   1.084       .  S
C1259      C1260   1.399       .  A
C1259      H1268   1.084       .  S
C1260      C1266   1.397       .  A
C1260      C1261   1.413       .  A
C1261      C1263   1.400       .  A
C1261      C1262   1.407       .  A
C1262      H1269   1.084       .  S
C1263      C1264   1.399       .  A
C1263      H1270   1.084       .  S
C1264      C1265   1.416       .  A
C1264      H1271   1.080       .  S
C1265      C1266   1.409       .  A
C1266      H1272   1.083       .  S
C1273      C1274   1.405       .  A
C1273      C1278   1.404       .  A
C1274      C1275   1.400       .  A
C1274      H1283   1.084       .  S
C1275      C1276   1.403       .  A
C1275      H1284   1.083       .  S
C1276      C1282   1.414       .  A
C1276      C1277   1.415       .  A
C1277      C1279   1.397       .  A
C1277      C1278   1.413       .  A
C1278      H1285   1.084       .  S
C1279      C1280   1.397       .  A
C1279      H1286   1.084       .  S
C1280      C1281   1.419       .  A
C1280      H1287   1.083       .  S
C1281      C1282   1.417       .  A
C1282      H1288   1.079       .  S
C1289      C1290   1.413       .  A
C1289      C1294   1.416       .  A
C1290      C1291   1.408       .  A
C1290      H1299   1.080       .  S
C1291      C1292   1.407       .  A
C1291      H1300   1.083       .  S
C1292      C1298   1.416       .  A
C1292      C1293   1.410       .  A
C1293      C1295   1.400       .  A
C1293      C1294   1.399       .  A
C1294      H1301   1.083   1_565  S
C1295      C1296   1.392       .  A
C1295      H1302   1.084       .  S
C1296      C1297   1.404       .  A
C1296      H1303   1.083       .  S
C1297      C1298   1.413       .  A
C1298      H1304   1.084       .  S
C1305      C1306   1.417       .  A
C1305      C1310   1.413       .  A
C1306      C1307   1.386       .  A
C1306      H1315   1.082   1_565  S
C1307      C1308   1.391       .  A
C1307      H1316   1.084       .  S
C1308      C1314   1.396       .  A
C1308      C1309   1.414       .  A
C1309      C1311   1.402       .  A
C1309      C1310   1.406       .  A
C1310      H1317   1.081       .  S
C1311      C1312   1.398       .  A
C1311      H1318   1.084       .  S
C1312      C1313   1.408       .  A
C1312      H1319   1.083       .  S
C1313      C1314   1.398       .  A
C1314      H1320   1.084       .  S
C1321      C1322   1.414       .  A
C1321      C1326   1.407       .  A
C1322      C1323   1.400       .  A
C1322      H1331   1.083       .  S
C1323      C1324   1.399       .  A
C1323      H1332   1.084       .  S
C1324      C1330   1.415       .  A
C1324      C1325   1.412       .  A
C1325      C1327   1.392       .  A
C1325      C1326   1.413       .  A
C1326      H1333   1.084       .  S
C1327      C1328   1.394   1_565  A
C1327      H1334   1.084       .  S
C1328      C1329   1.428   1_545  A
C1328      H1335   1.079       .  S
C1329      C1330   1.418       .  A
C1330      H1336   1.083       .  S
C1337      C1338   1.406       .  A
C1337      C1342   1.400       .  A
C1338      C1339   1.406       .  A
C1338      H1347   1.083       .  S
C1339      C1340   1.406       .  A
C1339      H1348   1.083       .  S
C1340      C1346   1.415       .  A
C1340      C1341   1.412       .  A
C1341      C1343   1.390       .  A
C1341      C1342   1.402       .  A
C1342      H1349   1.085       .  S
C1343      C1344   1.388       .  A
C1343      H1350   1.084       .  S
C1344      C1345   1.421       .  A
C1344      H1351   1.073       .  S
C1345      C1346   1.421       .  A
C1346      H1352   1.084   1_565  S
C1353      C1354   1.412       .  A
C1353      C1358   1.417       .  A
C1354      C1355   1.402       .  A
C1354      H1363   1.076       .  S
C1355      C1356   1.402       .  A
C1355      H1364   1.083       .  S
C1356      C1362   1.408       .  A
C1356      C1357   1.410       .  A
C1357      C1359   1.400       .  A
C1357      C1358   1.398       .  A
C1358      H1365   1.085       .  S
C1359      C1360   1.393       .  A
C1359      H1366   1.084       .  S
C1360      C1361   1.405       .  A
C1360      H1367   1.083       .  S
C1361      C1362   1.408       .  A
C1362      H1368   1.084       .  S
C1369      C1370   1.424       .  A
C1369      C1374   1.415       .  A
C1370      C1371   1.393       .  A
C1370      H1379   1.076       .  S
C1371      C1372   1.392       .  A
C1371      H1380   1.084       .  S
C1372      C1378   1.407       .  A
C1372      C1373   1.414       .  A
C1373      C1375   1.400       .  A
C1373      C1374   1.409       .  A
C1374      H1381   1.084       .  S
C1375      C1376   1.397       .  A
C1375      H1382   1.084       .  S
C1376      C1377   1.406       .  A
C1376      H1383   1.084       .  S
C1377      C1378   1.398       .  A
C1378      H1384   1.085       .  S
C1385      C1386   1.410       .  A
C1385      C1390   1.407       .  A
C1386      C1387   1.405       .  A
C1386      H1395   1.083       .  S
C1387      C1388   1.404       .  A
C1387      H1396   1.083       .  S
C1388      C1394   1.418       .  A
C1388      C1389   1.413       .  A
C1389      C1391   1.394       .  A
C1389      C1390   1.411       .  A
C1390      H1397   1.084       .  S
C1391      C1392   1.394       .  A
C1391      H1398   1.084       .  S
C1392      C1393   1.422       .  A
C1392      H1399   1.079       .  S
C1393      C1394   1.419       .  A
C1394      H1400   1.084       .  S
C1401      C1402   1.413       .  A
C1401      C1406   1.423       .  A
C1402      C1403   1.397       .  A
C1402      H1411   1.083       .  S
C1403      C1404   1.401       .  A
C1403      H1412   1.084       .  S
C1404      C1410   1.400       .  A
C1404      C1405   1.406       .  A
C1405      C1407   1.408       .  A
C1405      C1406   1.404       .  A
C1406      H1413   1.078       .  S
C1407      C1408   1.402       .  A
C1407      H1414   1.083       .  S
C1408      C1409   1.402       .  A
C1408      H1415   1.083       .  S
C1409      C1410   1.413       .  A
C1410      H1416   1.084       .  S
C1417      C1418   1.419       .  A
C1417      C1422   1.411       .  A
C1418      C1419   1.384       .  A
C1418      H1427   1.080       .  S
C1419      C1420   1.389       .  A
C1419      H1428   1.084       .  S
C1420      C1426   1.390       .  A
C1420      C1421   1.414       .  A
C1421      C1423   1.404       .  A
C1421      C1422   1.401       .  A
C1422      H1429   1.084       .  S
C1423      C1424   1.399   1_556  A
C1423      H1430   1.084   1_556  S
C1424      C1425   1.402   1_554  A
C1424      H1431   1.084       .  S
C1425      C1426   1.390       .  A
C1426      H1432   1.086       .  S
C1433      C1434   1.400       .  A
C1433      C1438   1.404   1_556  A
C1434      C1435   1.397       .  A
C1434      H1443   1.083       .  S
C1435      C1436   1.405       .  A
C1435      H1444   1.083       .  S
C1436      C1442   1.398       .  A
C1436      C1437   1.411   1_556  A
C1437      C1439   1.397       .  A
C1437      C1438   1.393       .  A
C1438      H1445   1.085       .  S
C1439      C1440   1.390       .  A
C1439      H1446   1.084       .  S
C1440      C1441   1.415       .  A
C1440      H1447   1.083       .  S
C1441      C1442   1.412   1_554  A
C1442      H1448   1.078       .  S
C1449      C1450   1.415       .  A
C1449      C1454   1.417   1_556  A
C1450      C1451   1.401       .  A
C1450      H1459   1.080       .  S
C1451      C1452   1.402       .  A
C1451      H1460   1.084       .  S
C1452      C1458   1.411       .  A
C1452      C1453   1.412   1_556  A
C1453      C1455   1.403       .  A
C1453      C1454   1.408       .  A
C1454      H1461   1.084       .  S
C1455      C1456   1.400       .  A
C1455      H1462   1.084       .  S
C1456      C1457   1.406       .  A
C1456      H1463   1.083       .  S
C1457      C1458   1.409   1_554  A
C1458      H1464   1.085       .  S
C1465      C1466   1.405       .  A
C1465      C1470   1.399       .  A
C1466      C1467   1.403       .  A
C1466      H1475   1.083       .  S
C1467      C1468   1.406       .  A
C1467      H1476   1.083       .  S
C1468      C1474   1.406       .  A
C1468      C1469   1.410       .  A
C1469      C1471   1.391       .  A
C1469      C1470   1.392       .  A
C1470      H1477   1.085       .  S
C1471      C1472   1.386       .  A
C1471      H1478   1.084       .  S
C1472      C1473   1.418       .  A
C1472      H1479   1.075       .  S
C1473      C1474   1.420       .  A
C1474      H1480   1.084       .  S
C1481      C1482   1.416       .  A
C1481      C1486   1.417       .  A
C1482      C1483   1.400       .  A
C1482      H1491   1.083       .  S
C1483      C1484   1.401       .  A
C1483      H1492   1.083       .  S
C1484      C1490   1.414       .  A
C1484      C1485   1.412       .  A
C1485      C1487   1.401       .  A
C1485      C1486   1.411       .  A
C1486      H1493   1.082       .  S
C1487      C1488   1.399       .  A
C1487      H1494   1.084       .  S
C1488      C1489   1.410       .  A
C1488      H1495   1.082       .  S
C1489      C1490   1.412       .  A
C1490      H1496   1.084       .  S
C1497      C1498   1.413       .  A
C1497      C1502   1.420       .  A
C1498      C1499   1.391       .  A
C1498      H1507   1.083       .  S
C1499      C1500   1.397       .  A
C1499      H1508   1.084       .  S
C1500      C1506   1.398       .  A
C1500      C1501   1.409       .  A
C1501      C1503   1.407       .  A
C1501      C1502   1.406       .  A
C1502      H1509   1.080       .  S
C1503      C1504   1.402       .  A
C1503      H1510   1.083       .  S
C1504      C1505   1.405       .  A
C1504      H1511   1.083       .  S
C1505      C1506   1.407       .  A
C1506      H1512   1.084       .  S
C1513      C1514   1.408       .  A
C1513      C1518   1.404   1_556  A
C1514      C1515   1.393       .  A
C1514      H1523   1.083       .  S
C1515      C1516   1.399       .  A
C1515      H1524   1.084       .  S
C1516      C1522   1.402       .  A
C1516      C1517   1.413   1_556  A
C1517      C1519   1.397       .  A
C1517      C1518   1.405       .  A
C1518      H1525   1.084       .  S
C1519      C1520   1.394       .  A
C1519      H1526   1.084       .  S
C1520      C1521   1.416       .  A
C1520      H1527   1.083       .  S
C1521      C1522   1.411   1_554  A
C1522      H1528   1.080       .  S
C1529      C1530   1.402       .  A
C1529      C1534   1.406   1_554  A
C1530      C1531   1.397       .  A
C1530      H1539   1.083       .  S
C1531      C1532   1.404       .  A
C1531      H1540   1.083       .  S
C1532      C1538   1.399       .  A
C1532      C1533   1.410   1_554  A
C1533      C1535   1.395       .  A
C1533      C1534   1.390       .  A
C1534      H1541   1.085       .  S
C1535      C1536   1.387       .  A
C1535      H1542   1.084       .  S
C1536      C1537   1.414       .  A
C1536      H1543   1.083       .  S
C1537      C1538   1.413   1_556  A
C1538      H1544   1.080       .  S
C1545      C1546   1.414       .  A
C1545      C1550   1.415   1_554  A
C1546      C1547   1.400       .  A
C1546      H1555   1.083       .  S
C1547      C1548   1.401       .  A
C1547      H1556   1.083       .  S
C1548      C1554   1.413       .  A
C1548      C1549   1.413   1_554  A
C1549      C1551   1.400       .  A
C1549      C1550   1.409       .  A
C1550      H1557   1.082       .  S
C1551      C1552   1.397       .  A
C1551      H1558   1.084       .  S
C1552      C1553   1.411       .  A
C1552      H1559   1.083       .  S
C1553      C1554   1.410   1_556  A
C1554      H1560   1.084       .  S
C1561      C1562   1.413   1_554  A
C1561      C1566   1.419       .  A
C1562      C1563   1.395       .  A
C1562      H1571   1.083       .  S
C1563      C1564   1.399   1_556  A
C1563      H1572   1.084       .  S
C1564      C1570   1.402       .  A
C1564      C1565   1.411       .  A
C1565      C1567   1.406       .  A
C1565      C1566   1.405       .  A
C1566      H1573   1.081       .  S
C1567      C1568   1.400       .  A
C1567      H1574   1.084       .  S
C1568      C1569   1.403       .  A
C1568      H1575   1.083       .  S
C1569      C1570   1.405       .  A
C1570      H1576   1.085   1_554  S
C1577      C1578   1.416       .  A
C1577      C1582   1.419       .  A
C1578      C1579   1.401       .  A
C1578      H1587   1.080       .  S
C1579      C1580   1.401       .  A
C1579      H1588   1.084       .  S
C1580      C1586   1.412       .  A
C1580      C1581   1.410       .  A
C1581      C1583   1.404   1_545  A
C1581      C1582   1.411       .  A
C1582      H1589   1.083   1_545  S
C1583      C1584   1.402       .  A
C1583      H1590   1.084       .  S
C1584      C1585   1.408   1_565  A
C1584      H1591   1.083       .  S
C1585      C1586   1.412       .  A
C1586      H1592   1.084       .  S
C1593      C1594   1.412   1_545  A
C1593      C1598   1.417       .  A
C1594      C1595   1.397       .  A
C1594      H1603   1.082       .  S
C1595      C1596   1.399   1_565  A
C1595      H1604   1.084       .  S
C1596      C1602   1.405       .  A
C1596      C1597   1.413       .  A
C1597      C1599   1.406       .  A
C1597      C1598   1.410       .  A
C1598      H1605   1.083       .  S
C1599      C1600   1.402       .  A
C1599      H1606   1.083       .  S
C1600      C1601   1.403       .  A
C1600      H1607   1.083       .  S
C1601      C1602   1.403       .  A
C1602      H1608   1.085   1_545  S
C1609      C1610   1.427       .  A
C1609      C1614   1.412       .  A
C1610      C1611   1.393       .  A
C1610      H1619   1.079       .  S
C1611      C1612   1.393       .  A
C1611      H1620   1.084       .  S
C1612      C1618   1.411       .  A
C1612      C1613   1.414       .  A
C1613      C1615   1.398       .  A
C1613      C1614   1.412       .  A
C1614      H1621   1.084       .  S
C1615      C1616   1.398       .  A
C1615      H1622   1.084       .  S
C1616      C1617   1.413       .  A
C1616      H1623   1.082       .  S
C1617      C1618   1.406       .  A
C1618      H1624   1.084       .  S
C1625      C1626   1.414       .  A
C1625      C1630   1.416       .  A
C1626      C1627   1.403       .  A
C1626      H1635   1.083       .  S
C1627      C1628   1.403       .  A
C1627      H1636   1.083       .  S
C1628      C1634   1.413       .  A
C1628      C1629   1.413       .  A
C1629      C1631   1.402       .  A
C1629      C1630   1.403       .  A
C1630      H1637   1.080       .  S
C1631      C1632   1.394       .  A
C1631      H1638   1.084       .  S
C1632      C1633   1.400       .  A
C1632      H1639   1.084       .  S
C1633      C1634   1.408       .  A
C1634      H1640   1.084       .  S
C1641      C1642   1.403       .  A
C1641      C1646   1.412       .  A
C1642      C1643   1.394       .  A
C1642      H1651   1.084       .  S
C1643      C1644   1.402       .  A
C1643      H1652   1.084       .  S
C1644      C1650   1.398       .  A
C1644      C1645   1.409       .  A
C1645      C1647   1.407       .  A
C1645      C1646   1.412       .  A
C1646      H1653   1.084       .  S
C1647      C1648   1.408       .  A
C1647      H1654   1.083       .  S
C1648      C1649   1.412       .  A
C1648      H1655   1.079       .  S
C1649      C1650   1.418       .  A
C1650      H1656   1.085       .  S
C1657      C1658   1.412       .  A
C1657      C1662   1.395       .  A
C1658      C1659   1.393       .  A
C1658      H1667   1.083       .  S
C1659      C1660   1.396       .  A
C1659      H1668   1.084       .  S
C1660      C1666   1.403       .  A
C1660      C1661   1.417       .  A
C1661      C1663   1.389       .  A
C1661      C1662   1.397       .  A
C1662      H1669   1.084       .  S
C1663      C1664   1.383       .  A
C1663      H1670   1.084       .  S
C1664      C1665   1.419       .  A
C1664      H1671   1.082       .  S
C1665      C1666   1.405       .  A
C1666      H1672   1.079       .  S
C1673      C1674   1.421       .  A
C1673      C1678   1.410       .  A
C1674      C1675   1.396       .  A
C1674      H1683   1.083       .  S
C1675      C1676   1.396       .  A
C1675      H1684   1.084       .  S
C1676      C1682   1.415       .  A
C1676      C1677   1.417       .  A
C1677      C1679   1.398       .  A
C1677      C1678   1.413       .  A
C1678      H1685   1.082       .  S
C1679      C1680   1.396       .  A
C1679      H1686   1.084       .  S
C1680      C1681   1.410       .  A
C1680      H1687   1.082       .  S
C1681      C1682   1.405       .  A
C1682      H1688   1.084       .  S
C1689      C1690   1.416       .  A
C1689      C1694   1.412       .  A
C1690      C1691   1.401       .  A
C1690      H1699   1.078       .  S
C1691      C1692   1.400       .  A
C1691      H1700   1.084       .  S
C1692      C1698   1.410       .  A
C1692      C1693   1.413       .  A
C1693      C1695   1.399       .  A
C1693      C1694   1.400       .  A
C1694      H1701   1.085       .  S
C1695      C1696   1.393       .  A
C1695      H1702   1.084       .  S
C1696      C1697   1.402       .  A
C1696      H1703   1.079       .  S
C1697      C1698   1.405       .  A
C1698      H1704   1.084       .  S
C1705      C1706   1.416       .  A
C1705      C1710   1.414       .  A
C1706      C1707   1.398       .  A
C1706      H1715   1.078       .  S
C1707      C1708   1.399       .  A
C1707      H1716   1.084       .  S
C1708      C1714   1.404       .  A
C1708      C1709   1.410       .  A
C1709      C1711   1.399       .  A
C1709      C1710   1.396       .  A
C1710      H1717   1.084       .  S
C1711      C1712   1.392       .  A
C1711      H1718   1.084       .  S
C1712      C1713   1.405       .  A
C1712      H1719   1.081       .  S
C1713      C1714   1.404       .  A
C1714      H1720   1.083       .  S
C1721      C1722   1.416       .  A
C1721      C1726   1.413       .  A
C1722      C1723   1.392       .  A
C1722      H1731   1.083       .  S
C1723      C1724   1.396       .  A
C1723      H1732   1.084       .  S
C1724      C1730   1.403       .  A
C1724      C1725   1.415       .  A
C1725      C1727   1.402       .  A
C1725      C1726   1.405       .  A
C1726      H1733   1.081       .  S
C1727      C1728   1.397       .  A
C1727      H1734   1.084       .  S
C1728      C1729   1.404       .  A
C1728      H1735   1.084       .  S
C1729      C1730   1.400       .  A
C1730      H1736   1.085       .  S
C1737      C1738   1.404       .  A
C1737      C1742   1.406       .  A
C1738      C1739   1.402       .  A
C1738      H1747   1.083       .  S
C1739      C1740   1.404       .  A
C1739      H1748   1.083       .  S
C1740      C1746   1.411       .  A
C1740      C1741   1.413       .  A
C1741      C1743   1.400       .  A
C1741      C1742   1.411       .  A
C1742      H1749   1.084       .  S
C1743      C1744   1.400       .  A
C1743      H1750   1.084       .  S
C1744      C1745   1.417       .  A
C1744      H1751   1.079       .  S
C1745      C1746   1.416       .  A
C1746      H1752   1.084       .  S
C1753      C1754   1.405       .  A
C1753      C1758   1.408       .  A
C1754      C1755   1.390       .  A
C1754      H1763   1.084       .  S
C1755      C1756   1.398       .  A
C1755      H1764   1.084       .  S
C1756      C1762   1.398       .  A
C1756      C1757   1.413       .  A
C1757      C1759   1.403       .  A
C1757      C1758   1.410       .  A
C1758      H1765   1.084       .  S
C1759      C1760   1.403       .  A
C1759      H1766   1.084       .  S
C1760      C1761   1.414       .  A
C1760      H1767   1.080       .  S
C1761      C1762   1.410       .  A
C1762      H1768   1.084       .  S
C1769      C1770   1.405       .  A
C1769      C1774   1.415       .  A
C1770      C1771   1.400       .  A
C1770      H1779   1.083       .  S
C1771      C1772   1.403       .  A
C1771      H1780   1.083       .  S
C1772      C1778   1.411       .  A
C1772      C1773   1.412       .  A
C1773      C1775   1.406       .  A
C1773      C1774   1.419       .  A
C1774      H1781   1.084       .  S
C1775      C1776   1.408       .  A
C1775      H1782   1.083       .  S
C1776      C1777   1.415       .  A
C1776      H1783   1.081       .  S
C1777      C1778   1.417       .  A
C1778      H1784   1.084       .  S
C1785      C1786   1.421       .  A
C1785      C1790   1.412       .  A
C1786      C1787   1.396       .  A
C1786      H1795   1.079       .  S
C1787      C1788   1.396       .  A
C1787      H1796   1.084       .  S
C1788      C1794   1.410       .  A
C1788      C1789   1.415       .  A
C1789      C1791   1.399       .  A
C1789      C1790   1.407       .  A
C1790      H1797   1.084       .  S
C1791      C1792   1.395       .  A
C1791      H1798   1.084       .  S
C1792      C1793   1.406       .  A
C1792      H1799   1.084       .  S
C1793      C1794   1.402       .  A
C1794      H1800   1.084       .  S
C1801      C1802   1.419       .  A
C1801      C1806   1.407       .  A
C1802      C1803   1.390       .  A
C1802      H1811   1.084       .  S
C1803      C1804   1.394       .  A
C1803      H1812   1.084       .  S
C1804      C1810   1.402       .  A
C1804      C1805   1.416       .  A
C1805      C1807   1.398   1_545  A
C1805      C1806   1.403       .  A
C1806      H1813   1.082   1_545  S
C1807      C1808   1.393       .  A
C1807      H1814   1.084       .  S
C1808      C1809   1.408   1_565  A
C1808      H1815   1.083       .  S
C1809      C1810   1.401       .  A
C1810      H1816   1.085       .  S
C1817      C1818   1.421   1_545  A
C1817      C1822   1.418       .  A
C1818      C1819   1.412       .  A
C1818      H1827   1.073       .  S
C1819      C1820   1.404       .  A
C1819      H1828   1.084       .  S
C1820      C1826   1.424       .  A
C1820      C1821   1.409   1_565  A
C1821      C1823   1.399       .  A
C1821      C1822   1.409       .  A
C1822      H1829   1.079       .  S
C1823      C1824   1.395       .  A
C1823      H1830   1.084       .  S
C1824      C1825   1.409       .  A
C1824      H1831   1.083       .  S
C1825      C1826   1.417   1_545  A
C1826      H1832   1.084       .  S
C1833      C1834   1.403       .  A
C1833      C1838   1.403       .  A
C1834      C1835   1.398       .  A
C1834      H1843   1.084       .  S
C1835      C1836   1.403       .  A
C1835      H1844   1.084       .  S
C1836      C1842   1.408       .  A
C1836      C1837   1.414       .  A
C1837      C1839   1.397       .  A
C1837      C1838   1.407       .  A
C1838      H1845   1.084       .  S
C1839      C1840   1.395       .  A
C1839      H1846   1.084       .  S
C1840      C1841   1.417       .  A
C1840      H1847   1.083       .  S
C1841      C1842   1.415       .  A
C1842      H1848   1.079       .  S
C1849      C1850   1.417       .  A
C1849      C1854   1.412       .  A
C1850      C1851   1.401       .  A
C1850      H1859   1.083       .  S
C1851      C1852   1.401       .  A
C1851      H1860   1.083       .  S
C1852      C1858   1.413       .  A
C1852      C1853   1.412       .  A
C1853      C1855   1.397       .  A
C1853      C1854   1.401       .  A
C1854      H1861   1.080       .  S
C1855      C1856   1.392       .  A
C1855      H1862   1.084       .  S
C1856      C1857   1.409       .  A
C1856      H1863   1.083       .  S
C1857      C1858   1.412       .  A
C1858      H1864   1.084       .  S
C1865      C1866   1.404       .  A
C1865      C1870   1.405       .  A
C1866      C1867   1.398       .  A
C1866      H1875   1.084       .  S
C1867      C1868   1.403       .  A
C1867      H1876   1.084       .  S
C1868      C1874   1.402       .  A
C1868      C1869   1.411       .  A
C1869      C1871   1.400       .  A
C1869      C1870   1.404       .  A
C1870      H1877   1.085       .  S
C1871      C1872   1.398       .  A
C1871      H1878   1.084       .  S
C1872      C1873   1.414       .  A
C1872      H1879   1.079       .  S
C1873      C1874   1.417       .  A
C1874      H1880   1.084       .  S
C1881      C1882   1.411       .  A
C1881      C1886   1.416       .  A
C1882      C1883   1.404       .  A
C1882      H1891   1.079       .  S
C1883      C1884   1.405       .  A
C1883      H1892   1.084       .  S
C1884      C1890   1.404       .  A
C1884      C1885   1.410       .  A
C1885      C1887   1.403       .  A
C1885      C1886   1.394       .  A
C1886      H1893   1.084       .  S
C1887      C1888   1.393       .  A
C1887      H1894   1.084       .  S
C1888      C1889   1.399       .  A
C1888      H1895   1.084       .  S
C1889      C1890   1.406       .  A
C1890      H1896   1.085       .  S
C1897      C1898   1.408       .  A
C1897      C1902   1.404       .  A
C1898      C1899   1.401       .  A
C1898      H1907   1.083       .  S
C1899      C1900   1.403       .  A
C1899      H1908   1.084       .  S
C1900      C1906   1.411       .  A
C1900      C1901   1.413       .  A
C1901      C1903   1.394       .  A
C1901      C1902   1.404       .  A
C1902      H1909   1.084       .  S
C1903      C1904   1.391       .  A
C1903      H1910   1.084       .  S
C1904      C1905   1.418       .  A
C1904      H1911   1.081       .  S
C1905      C1906   1.415       .  A
C1906      H1912   1.079       .  S
C1913      C1914   1.426       .  A
C1913      C1918   1.415       .  A
C1914      C1915   1.395       .  A
C1914      H1923   1.079       .  S
C1915      C1916   1.394       .  A
C1915      H1924   1.084       .  S
C1916      C1922   1.409       .  A
C1916      C1917   1.413       .  A
C1917      C1919   1.399       .  A
C1917      C1918   1.407       .  A
C1918      H1925   1.084       .  S
C1919      C1920   1.396       .  A
C1919      H1926   1.084       .  S
C1920      C1921   1.408       .  A
C1920      H1927   1.083       .  S
C1921      C1922   1.404       .  A
C1922      H1928   1.084       .  S
C1929      C1930   1.407       .  A
C1929      C1934   1.409       .  A
C1930      C1931   1.395       .  A
C1930      H1939   1.083       .  S
C1931      C1932   1.402       .  A
C1931      H1940   1.084       .  S
C1932      C1938   1.402       .  A
C1932      C1933   1.409       .  A
C1933      C1935   1.399       .  A
C1933      C1934   1.405       .  A
C1934      H1941   1.084       .  S
C1935      C1936   1.397       .  A
C1935      H1942   1.084       .  S
C1936      C1937   1.417       .  A
C1936      H1943   1.083       .  S
C1937      C1938   1.418       .  A
C1938      H1944   1.076       .  S
C1945      C1946   1.415       .  A
C1945      C1950   1.417       .  A
C1946      C1947   1.399       .  A
C1946      H1955   1.078       .  S
C1947      C1948   1.400       .  A
C1947      H1956   1.084       .  S
C1948      C1954   1.407       .  A
C1948      C1949   1.411       .  A
C1949      C1951   1.405       .  A
C1949      C1950   1.405       .  A
C1950      H1957   1.084       .  S
C1951      C1952   1.401       .  A
C1951      H1958   1.084       .  S
C1952      C1953   1.404       .  A
C1952      H1959   1.083       .  S
C1953      C1954   1.406       .  A
C1954      H1960   1.084       .  S
C1961      C1962   1.400       .  A
C1961      C1966   1.403       .  A
C1962      C1963   1.394       .  A
C1962      H1971   1.084       .  S
C1963      C1964   1.403       .  A
C1963      H1972   1.084       .  S
C1964      C1970   1.399       .  A
C1964      C1965   1.411       .  A
C1965      C1967   1.401       .  A
C1965      C1966   1.406       .  A
C1966      H1973   1.084       .  S
C1967      C1968   1.398       .  A
C1967      H1974   1.083       .  S
C1968      C1969   1.413       .  A
C1968      H1975   1.083       .  S
C1969      C1970   1.418       .  A
C1970      H1976   1.080       .  S
C1977      C1978   1.417       .  A
C1977      C1982   1.410       .  A
C1978      C1979   1.398       .  A
C1978      H1987   1.083       .  S
C1979      C1980   1.399       .  A
C1979      H1988   1.084       .  S
C1980      C1986   1.407       .  A
C1980      C1981   1.412       .  A
C1981      C1983   1.396       .  A
C1981      C1982   1.397       .  A
C1982      H1989   1.080       .  S
C1983      C1984   1.388       .  A
C1983      H1990   1.084       .  S
C1984      C1985   1.407       .  A
C1984      H1991   1.083       .  S
C1985      C1986   1.406       .  A
C1986      H1992   1.084       .  S
