geometry optimzed in LAMMPS
_audit_creation_date              2020-11-30 
_audit_creation_method            'lammps2cif' 
_symmetry_space_group_name_H-M    'P1' 
_symmetry_Int_Tables_number       1 
_symmetry_cell_setting            triclinic 
loop_ 
_symmetry_equiv_pos_as_xyz 
  x,y,z 
_cell_length_a                    31.79436436 
_cell_length_b                    36.07134269428572 
_cell_length_c                    29.603406271312238 
_cell_angle_alpha                 89.72914151196993 
_cell_angle_beta                  90.52362159233653 
_cell_angle_gamma                 89.77347945490568 
loop_ 
_atom_site_label 
_atom_site_type_symbol 
_atom_site_fract_x 
_atom_site_fract_y 
_atom_site_fract_z 
_atom_site_charge 
C1          C  0.68167995  0.05925913  0.69072998    -0.11100
C2          C  0.66783377  0.09375360  0.67486949    -0.04900
C3          C  0.68935788  0.12629357  0.68370103    -0.11000
C4          C  0.72723913  0.12507669  0.70842196     0.09900
C5          C  0.74244748  0.09048455  0.72529758    -0.02800
C6          C  0.71960848  0.05722892  0.71673608     0.09700
C7          C  0.73506446  0.02370010  0.73503654    -0.12800
C8          C  0.77187569  0.02287522  0.76183677    -0.12800
C9          C  0.79499337  0.05539742  0.77019466     0.09700
C10         C  0.78033738  0.08944381  0.75110274    -0.02800
C11         C  0.75002904  0.15757059  0.71672450    -0.13000
C12         C  0.78743190  0.15642824  0.74110473    -0.13000
C13         C  0.80275906  0.12290827  0.75906737     0.09900
C14         C  0.83980552  0.12218172  0.78540188    -0.11000
C15         C  0.85413692  0.08870980  0.80314064    -0.04900
C16         C  0.83240286  0.05548719  0.79701164    -0.11100
H17         H  0.71831908  0.99804482  0.72928910     0.07200
H18         H  0.78243321  0.99657229  0.77570448     0.07200
H19         H  0.73916774  0.18421047  0.70418623     0.07300
H20         H  0.80421431  0.18217927  0.74598759     0.07300
H21         H  0.63954306  0.09539045  0.65406081     0.03800
H22         H  0.88141569  0.08906864  0.82552431     0.03800
O23         O  0.59727282  0.25081625  0.55853996    -0.81100
O24         O  0.45340997  0.26488694  0.41249504    -0.65800
O25         O  0.51503763  0.26161771  0.52263922    -1.12400
C26         C  0.49574871  0.13154141  0.50977067     1.05800
O27         O  0.40616246  0.22214463  0.43056284    -0.79000
O28         O  0.41293447  0.20329662  0.51935838    -0.66600
Ni29       Ni  0.56663228  0.28945385  0.52677388     1.34900
C30         C  0.43018749  0.20734474  0.55783713     0.84500
O31         O  0.47989017  0.31775320  0.46854003    -0.79500
O32         O  0.54246971  0.33310571  0.49784578    -0.89800
C33         C  0.41860716  0.24884203  0.40588052     0.84100
O34         O  0.59015184  0.27223452  0.47170759    -0.68000
O35         O  0.45921619  0.14073412  0.49537703    -0.87300
C36         C  0.57352484  0.26632473  0.43337353     0.84900
C37         C  0.50683126  0.34185341  0.48074229     1.06500
H38         H  0.50562759  0.20281245  0.44396558     0.38300
O39         O  0.48783300  0.21142187  0.46804788    -1.10000
O40         O  0.47012535  0.20621027  0.56308970    -0.66600
Ni41       Ni  0.51873805  0.20852427  0.52332043     1.26300
O42         O  0.53363962  0.26593794  0.42763754    -0.66800
O43         O  0.52354846  0.15534816  0.52051111    -0.79100
C44         C  0.58601251  0.22333503  0.58256269     0.84300
O45         O  0.55088133  0.20752498  0.57738904    -0.66300
Ni46       Ni  0.43585807  0.18411044  0.46474382     1.27400
Ni47       Ni  0.48460275  0.26442528  0.46691098     1.26100
H48         H  0.49688420  0.26992913  0.54652620     0.38900
O49         O  0.40483146  0.47013062  0.55631777    -0.81100
O50         O  0.55234542  0.45832379  0.41567580    -0.65800
O51         O  0.48694827  0.46100118  0.52207739    -1.12400
C52         C  0.50703489  0.09151295  0.50974126     1.05800
O53         O  0.59924997  0.50015155  0.43778275    -0.79000
O54         O  0.58931230  0.02120259  0.52407690    -0.66600
Ni55       Ni  0.43494904  0.43355682  0.52168553     1.34900
C56         C  0.57150725  0.01499222  0.56146285     0.84500
O57         O  0.52416129  0.40562941  0.47132527    -0.79500
O58         O  0.45826443  0.39133927  0.48947372    -0.89800
C59         C  0.58774868  0.47379772  0.41216706     0.84100
O60         O  0.41364809  0.45585778  0.46769781    -0.68000
O61         O  0.54319585  0.08268135  0.49481616    -0.87300
C62         C  0.43162945  0.45998732  0.43002765     0.84900
C63         C  0.49563545  0.38189770  0.47921026     1.06500
H64         H  0.49864507  0.02039153  0.44422498     0.38300
O65         O  0.51596791  0.01167851  0.46910509    -1.10000
O66         O  0.53148445  0.01504244  0.56526400    -0.66600
Ni67       Ni  0.48378071  0.01412856  0.52307673     1.26300
O68         O  0.47155746  0.45724833  0.42628945    -0.66800
O69         O  0.47965457  0.06750547  0.52093559    -0.79100
C70         C  0.41578945  0.99753252  0.58051840     0.84300
O71         O  0.45022788  0.01450855  0.57549680    -0.66300
Ni72       Ni  0.56798646  0.03896053  0.46766606     1.27400
Ni73       Ni  0.51929774  0.45872875  0.46833674     1.26100
H74         H  0.50397366  0.45205634  0.54707151     0.38900
C75         C  0.32461090  0.15966004  0.69016628    -0.11100
C76         C  0.33840653  0.12507717  0.67508419    -0.04900
C77         C  0.31751914  0.09247925  0.68540754    -0.11000
C78         C  0.28093334  0.09368916  0.71148621     0.09900
C79         C  0.26625424  0.12831779  0.72808460    -0.02800
C80         C  0.28818233  0.16164008  0.71774435     0.09700
C81         C  0.27334712  0.19523120  0.73582660    -0.12800
C82         C  0.23791432  0.19605435  0.76400624    -0.12800
C83         C  0.21543445  0.16349027  0.77378974     0.09700
C84         C  0.22956177  0.12938066  0.75500182    -0.02800
C85         C  0.25880895  0.06112756  0.72121530    -0.13000
C86         C  0.22245084  0.06229446  0.74654691    -0.13000
C87         C  0.20761617  0.09592618  0.76401770     0.09900
C88         C  0.17135500  0.09681239  0.79064984    -0.11000
C89         C  0.15752814  0.13021107  0.80835216    -0.04900
C90         C  0.17904590  0.16339733  0.80151657    -0.11100
H91         H  0.28953916  0.22094553  0.72881167     0.07200
H92         H  0.22778473  0.22239256  0.77763081     0.07200
H93         H  0.26929175  0.03444020  0.70895838     0.07300
H94         H  0.20606259  0.03649130  0.75244349     0.07300
H95         H  0.36570986  0.12349091  0.65335086     0.03800
H96         H  0.13072308  0.12987101  0.83088079     0.03800
O97         O  0.91687033  0.25086473  0.91623011    -0.81100
O98         O  0.04736042  0.27051036  0.07754135    -0.65800
O99         O  0.99349571  0.26049731  0.96352363    -1.12400
C100        C  0.00971056  0.13169686  0.98805806     1.05800
O101        O  0.09119084  0.22227337  0.07348723    -0.79000
O102        O  0.09338049  0.20458407  0.98465257    -0.66600
Ni103      Ni  0.94233419  0.28848514  0.95409949     1.34900
C104        C  0.08016465  0.20529508  0.94413487     0.84500
O105        O  0.02625942  0.31867142  0.01307642    -0.79500
O106        O  0.96170336  0.33177374  0.98774693    -0.89800
C107        C  0.07962122  0.25279075  0.09086425     0.84100
O108        O  0.91494021  0.26817120  0.00583824    -0.68000
O109        O  0.04570084  0.14159639  0.00287504    -0.87300
C110        C  0.92862397  0.26826231  0.04631746     0.84900
C111        C  0.99781951  0.34192029  0.00210016     1.06500
H112        H  0.99461452  0.20697023  0.04916308     0.38300
O113        O  0.01456171  0.21338953  0.02598472    -1.10000
O114        O  0.04096505  0.20217107  0.93461425    -0.66600
Ni115      Ni  0.98857903  0.20769839  0.96826077     1.26300
O116        O  0.96779771  0.27225148  0.05515885    -0.66800
O117        O  0.98189183  0.15514033  0.97591501    -0.79100
C118        C  0.92930216  0.22083144  0.89811310     0.84300
O119        O  0.96190468  0.20357911  0.91129002    -0.66300
Ni120      Ni  0.06528808  0.18484972  0.03610807     1.27400
Ni121      Ni  0.01983829  0.26621056  0.02098379     1.26100
H122        H  0.01314373  0.26714491  0.94016462     0.38900
O123        O  0.08926968  0.46918459  0.91749021    -0.81100
O124        O  0.95830098  0.45347485  0.07688719    -0.65800
O125        O  0.01377242  0.46328401  0.96474957    -1.12400
C126        C  0.99968201  0.09149334  0.98729848     1.05800
O127        O  0.91760972  0.50403478  0.07379337    -0.79000
O128        O  0.91648977  0.01638536  0.98286846    -0.66600
Ni129      Ni  0.06391766  0.43387503  0.95771978     1.34900
C130        C  0.93016061  0.01667706  0.94276634     0.84500
O131        O  0.97872449  0.40543100  0.01241376    -0.79500
O132        O  0.04469906  0.39259127  0.99464867    -0.89800
C133        C  0.92811635  0.47297276  0.09128267     0.84100
O134        O  0.09075093  0.45709027  0.00777168    -0.68000
O135        O  0.96245662  0.08115390  0.99662967    -0.87300
C136        C  0.07726545  0.45732640  0.04799038     0.84900
C137        C  0.00750811  0.38214371  0.00362728     1.06500
H138        H  0.01258987  0.01651956  0.05074826     0.38300
O139        O  0.99324090  0.01038440  0.02665974    -1.10000
O140        O  0.96908053  0.02261209  0.93457206    -0.66600
Ni141      Ni  0.02067261  0.01585567  0.97034636     1.26300
O142        O  0.03846889  0.45141666  0.05685403    -0.66800
O143        O  0.02851544  0.06811327  0.97909924    -0.79100
C144        C  0.07938217  0.00059699  0.90081291     0.84300
O145        O  0.04907585  0.02012290  0.91486498    -0.66300
Ni146      Ni  0.94297051  0.03959457  0.03336483     1.27400
Ni147      Ni  0.98653925  0.45777559  0.02123219     1.26100
H148        H  0.99432379  0.45736501  0.94058318     0.38900
C149        C  0.32777288  0.34671688  0.29353696    -0.11100
C150        C  0.34753276  0.37979910  0.30474640    -0.04900
C151        C  0.33108359  0.41440110  0.29232428    -0.11000
C152        C  0.29299934  0.41600977  0.26692113     0.09900
C153        C  0.27165418  0.38239380  0.25668034    -0.02800
C154        C  0.28909593  0.34769395  0.27019545     0.09700
C155        C  0.26749036  0.31485558  0.26016601    -0.12800
C156        C  0.22846472  0.31591746  0.23905462    -0.12800
C157        C  0.21072026  0.34969853  0.22482378     0.09700
C158        C  0.23265304  0.38331170  0.23309350    -0.02800
C159        C  0.27591119  0.44970685  0.25098647    -0.13000
C160        C  0.23872779  0.45033025  0.22501866    -0.13000
C161        C  0.21641826  0.41749970  0.21628286     0.09900
C162        C  0.17838215  0.41735739  0.19091688    -0.11000
C163        C  0.15583473  0.38444415  0.18655896    -0.04900
C164        C  0.17174823  0.35065467  0.20187434    -0.11100
H165        H  0.28032704  0.28793011  0.26895709     0.07200
H166        H  0.21243196  0.28987216  0.23371313     0.07200
H167        H  0.29175566  0.47564378  0.25773076     0.07300
H168        H  0.22689323  0.47672816  0.21268760     0.07300
H169        H  0.37572724  0.37854066  0.32570596     0.03800
H170        H  0.12745490  0.38444379  0.16581127     0.03800
C171        C  0.68040079  0.31091858  0.30159227    -0.11100
C172        C  0.66690883  0.34497893  0.31850848    -0.04900
C173        C  0.68724280  0.37789538  0.30873981    -0.11000
C174        C  0.72291140  0.37767856  0.28128758     0.09900
C175        C  0.73685023  0.34375668  0.26207021    -0.02800
C176        C  0.71575288  0.30993375  0.27221008     0.09700
C177        C  0.73034221  0.27700199  0.25218739    -0.12800
C178        C  0.76437682  0.27738431  0.22195595    -0.12800
C179        C  0.78538866  0.31059852  0.21147063     0.09700
C180        C  0.77175107  0.34401024  0.23247966    -0.02800
C181        C  0.74476899  0.41058876  0.27266846    -0.13000
C182        C  0.77957300  0.41063041  0.24495750    -0.13000
C183        C  0.79267766  0.37805634  0.22354406     0.09900
C184        C  0.82617370  0.37873969  0.19305283    -0.11000
C185        C  0.83878093  0.34620978  0.17224888    -0.04900
C186        C  0.81960335  0.31221040  0.18066335    -0.11100
H187        H  0.71495784  0.25090485  0.25922757     0.07200
H188        H  0.77420964  0.25155836  0.20674627     0.07200
H189        H  0.73514377  0.43665463  0.28741217     0.07300
H190        H  0.79563888  0.43667422  0.23962863     0.07300
H191        H  0.64014192  0.34589338  0.34106599     0.03800
H192        H  0.86422792  0.34752580  0.14800809     0.03800
C193        C  0.89270232  0.41255253  0.18795997    -0.09400
C194        C  0.84926501  0.41246974  0.17988464     0.06800
C195        C  0.83165761  0.43823499  0.14916977    -0.03100
C196        C  0.85813080  0.46109259  0.12401867    -0.07600
C197        C  0.90205328  0.45731377  0.12755129     0.06000
C198        C  0.91926020  0.43388674  0.16139098    -0.02600
Br199      Br  0.97846979  0.42644326  0.17056028    -0.02300
H200        H  0.90636223  0.39269067  0.21151525     0.09900
H201        H  0.84436890  0.47896080  0.09828640     0.07900
Br202      Br  0.77261300  0.43923163  0.13509970    -0.02700
C203        C  0.12631509  0.46425031  0.16565749    -0.09400
C204        C  0.16492994  0.44631347  0.15817234     0.06800
C205        C  0.17831247  0.44181473  0.11327945    -0.03100
C206        C  0.15031453  0.44858910  0.07746397    -0.07600
C207        C  0.10891292  0.46070376  0.08535685     0.06000
C208        C  0.09856247  0.47197369  0.12956985    -0.02600
Br209      Br  0.04752058  0.49795202  0.14272556    -0.02300
H210        H  0.11577203  0.46852563  0.19994402     0.09900
H211        H  0.15991536  0.44099596  0.04372761     0.07900
Br212      Br  0.23069399  0.41776516  0.09981097    -0.02700
C213        C  0.85404316  0.27159519  0.07375794    -0.09400
C214        C  0.89714417  0.26650566  0.08407984     0.06800
C215        C  0.90867040  0.26355679  0.13040538    -0.03100
C216        C  0.87878313  0.27047856  0.16414396    -0.07600
C217        C  0.83745199  0.28154818  0.15315995     0.06000
C218        C  0.82456301  0.27908436  0.10763867    -0.02600
Br219      Br  0.76869659  0.29330565  0.08956292    -0.02300
H220        H  0.84353367  0.27297522  0.03889229     0.09900
H221        H  0.88946607  0.27239240  0.19892039     0.07900
Br222      Br  0.96496810  0.25324223  0.15088651    -0.02700
C223        C  0.08483305  0.28866569  0.16160406    -0.09400
C224        C  0.10535399  0.26961925  0.12686189     0.06800
C225        C  0.14954988  0.27169369  0.12387618    -0.03100
C226        C  0.17159488  0.29573096  0.15219098    -0.07600
C227        C  0.15048560  0.31720164  0.18429441     0.06000
C228        C  0.10706479  0.31205232  0.19050150    -0.02600
Br229      Br  0.07623119  0.33908147  0.23514104    -0.02300
H230        H  0.05101954  0.28692555  0.16478746     0.09900
H231        H  0.20487023  0.29994111  0.14656471     0.07900
Br232      Br  0.18115728  0.24689539  0.07805675    -0.02700
C233        C  0.18086265  0.19472279  0.87463867    -0.09400
C234        C  0.16391538  0.19403659  0.83076444     0.06800
C235        C  0.12233342  0.20688575  0.82442345    -0.03100
C236        C  0.09645292  0.21339233  0.86177728    -0.07600
C237        C  0.11136511  0.20776559  0.90627660     0.06000
C238        C  0.15519211  0.20088193  0.91229183    -0.02600
Br239      Br  0.18208945  0.19402371  0.97009942    -0.02300
H240        H  0.21274262  0.18484822  0.88021521     0.09900
H241        H  0.06363969  0.22008114  0.85570938     0.07900
Br242      Br  0.09741358  0.20837838  0.76524150    -0.02700
C243        C  0.08482468  0.03448875  0.82871876    -0.09400
C244        C  0.10516013  0.01630969  0.86480961     0.06800
C245        C  0.14921427  0.01884908  0.86961445    -0.03100
C246        C  0.17150460  0.04226683  0.84095560    -0.07600
C247        C  0.15044471  0.06324924  0.80774881     0.06000
C248        C  0.10719227  0.05785542  0.80014531    -0.02600
Br249      Br  0.07682820  0.08492235  0.75431490    -0.02300
H250        H  0.05101241  0.03238935  0.82457230     0.09900
H251        H  0.20468726  0.04683360  0.84740930     0.07900
Br252      Br  0.17962862  0.49626692  0.91907564    -0.02700
C253        C  0.63002656  0.42380465  0.31110858    -0.09400
C254        C  0.66884587  0.41161504  0.32837224     0.06800
C255        C  0.68391874  0.42563257  0.36967002    -0.03100
C256        C  0.65844044  0.44925111  0.39491413    -0.07600
C257        C  0.61762939  0.45814848  0.37986396     0.06000
C258        C  0.60422734  0.44676006  0.33660648    -0.02600
Br259      Br  0.55015448  0.45991236  0.31180285    -0.02300
H260        H  0.61834310  0.41297764  0.27931031     0.09900
H261        H  0.66906211  0.45789971  0.42809915     0.07900
Br262      Br  0.73648599  0.40942046  0.39538585    -0.02700
C263        C  0.42229297  0.45812111  0.34581694    -0.09400
C264        C  0.40466136  0.46464035  0.38850204     0.06800
C265        C  0.36037510  0.46977083  0.39058656    -0.03100
C266        C  0.33491354  0.46023827  0.35345015    -0.07600
C267        C  0.35276397  0.44637712  0.31383104     0.06000
C268        C  0.39662672  0.44983731  0.30845310    -0.02600
Br269      Br  0.42293698  0.43566997  0.25308877    -0.02300
H270        H  0.45605172  0.45595761  0.34222986     0.09900
H271        H  0.30113147  0.45907841  0.35772155     0.07900
Br272      Br  0.33196689  0.48711199  0.44353626    -0.02700
C273        C  0.34499349  0.02077269  0.59937974    -0.09400
C274        C  0.38611208  0.01221146  0.61363984     0.06800
C275        C  0.39991558  0.02316572  0.65685318    -0.03100
C276        C  0.37439620  0.04601263  0.68288979    -0.07600
C277        C  0.33533678  0.05827242  0.66620662     0.06000
C278        C  0.31966248  0.04406777  0.62521460    -0.02600
Br279      Br  0.26655292  0.05982008  0.60036047    -0.02300
H280        H  0.33401232  0.01222761  0.56628022     0.09900
H281        H  0.38650809  0.05678004  0.71452801     0.07900
Br282      Br  0.45422029  0.00943363  0.68055894    -0.02700
C283        C  0.58605375  0.26973721  0.34969051    -0.09400
C284        C  0.60202685  0.26252853  0.39338162     0.06800
C285        C  0.64610032  0.25670892  0.39806459    -0.03100
C286        C  0.67301624  0.26472180  0.36191754    -0.07200
C287        C  0.65715626  0.27884056  0.32092983     0.06000
C288        C  0.61319333  0.27735552  0.31361864    -0.02600
Br289      Br  0.58890693  0.29423617  0.25763441    -0.02300
H290        H  0.55249890  0.27300467  0.34430331     0.09900
H291        H  0.70665938  0.26498072  0.36809794     0.07900
Br292      Br  0.67246521  0.24051161  0.45346926    -0.02700
C293        C  0.32589322  0.29287983  0.34609150    -0.09400
C294        C  0.34696645  0.31242395  0.31209993     0.06800
C295        C  0.38920171  0.30376825  0.30304324    -0.03100
C296        C  0.41126394  0.28006876  0.33202844    -0.07600
C297        C  0.39148823  0.26383211  0.36942964     0.06000
C298        C  0.34752761  0.26775237  0.37393158    -0.02600
Br299      Br  0.31568284  0.24268090  0.41938278    -0.02300
H300        H  0.29317849  0.29897960  0.35294462     0.09900
H301        H  0.44467071  0.27604587  0.32683393     0.07900
Br302      Br  0.41892679  0.32616146  0.25385857    -0.02700
C303        C  0.41901440  0.20102719  0.64146397    -0.09400
C304        C  0.40249967  0.21029383  0.59857076     0.06800
C305        C  0.35857129  0.21710984  0.59518352    -0.03100
C306        C  0.33195894  0.20719647  0.63087582    -0.07600
C307        C  0.34831656  0.19138222  0.67067495     0.06000
C308        C  0.39230767  0.19244896  0.67753174    -0.02600
Br309      Br  0.41697322  0.17474704  0.73295860    -0.02300
H310        H  0.45256302  0.19720328  0.64611465     0.09900
H311        H  0.29822827  0.20766269  0.62531311     0.07900
Br312      Br  0.33236635  0.23832588  0.54247281    -0.02700
C313        C  0.91585546  0.00778886  0.86015309    -0.09400
C314        C  0.89983356  0.01250506  0.90395835     0.06800
C315        C  0.85559637  0.01708110  0.90834594    -0.03100
C316        C  0.83035346  0.02284627  0.86970851    -0.07600
C317        C  0.84815533  0.02490615  0.82660136     0.06000
C318        C  0.89035919  0.01349550  0.82182283    -0.02600
Br319      Br  0.91660418  0.01390340  0.76376161    -0.02300
H320        H  0.94911132  0.00263344  0.85543419     0.09900
H321        H  0.79789307  0.03128758  0.87404298     0.07900
Br322      Br  0.82742055  0.02086756  0.96535120    -0.02700
C323        C  0.92550213  0.18510145  0.82697650    -0.09400
C324        C  0.90423966  0.20380227  0.86157945     0.06800
C325        C  0.86006049  0.20096809  0.86407680    -0.03100
C326        C  0.83866268  0.17708885  0.83490086    -0.07600
C327        C  0.86050620  0.15587192  0.80314464     0.06000
C328        C  0.90398964  0.16132231  0.79780957    -0.02600
Br329      Br  0.93570737  0.13424309  0.75392319    -0.02300
H330        H  0.95936986  0.18734832  0.82426129     0.09900
H331        H  0.80533998  0.17253344  0.83978657     0.07900
Br332      Br  0.82783017  0.22409599  0.91078110    -0.02700
C333        C  0.58402659  0.02089607  0.64510600    -0.09400
C334        C  0.59914269  0.01045454  0.60250130     0.06800
C335        C  0.64249678  0.00138457  0.59913754    -0.03100
C336        C  0.67045149  0.01027038  0.63445911    -0.07600
C337        C  0.65599774  0.02769209  0.67360903     0.06000
C338        C  0.61205138  0.02866148  0.68079041    -0.02600
Br339      Br  0.58963608  0.04919349  0.73522851    -0.02300
H340        H  0.55086434  0.02661866  0.64953523     0.09900
H341        H  0.70397449  0.00815937  0.62868430     0.07900
Br342      Br  0.66619463  0.97910618  0.54626838    -0.02700
C343        C  0.65735626  0.19980379  0.60001692    -0.09400
C344        C  0.61627356  0.20691145  0.61473776     0.06800
C345        C  0.60347324  0.19340812  0.65716160    -0.03100
C346        C  0.63064850  0.17089252  0.68245194    -0.07600
C347        C  0.66993297  0.16046259  0.66537603     0.06000
C348        C  0.68388428  0.17600639  0.62451943    -0.02600
Br349      Br  0.73587141  0.16112072  0.59750595    -0.02300
H350        H  0.66739565  0.20983565  0.56729688     0.09900
H351        H  0.61956338  0.15862016  0.71362205     0.07900
Br352      Br  0.54837593  0.20262100  0.68079954    -0.02700
C353        C  0.68172060  0.55922920  0.69065556    -0.11100
C354        C  0.66788526  0.59371954  0.67477063    -0.04900
C355        C  0.68941444  0.62625893  0.68358911    -0.11000
C356        C  0.72729254  0.62504594  0.70831470     0.09900
C357        C  0.74248992  0.59045874  0.72521569    -0.02800
C358        C  0.71964462  0.55720323  0.71667075     0.09700
C359        C  0.73508932  0.52368008  0.73499754    -0.12800
C360        C  0.77189353  0.52286138  0.76180957    -0.12800
C361        C  0.79501494  0.55538392  0.77015462     0.09700
C362        C  0.78037219  0.58942393  0.75103434    -0.02800
C363        C  0.75008830  0.65753977  0.71659987    -0.13000
C364        C  0.78748383  0.65640277  0.74099342    -0.13000
C365        C  0.80279788  0.62288899  0.75898559     0.09900
C366        C  0.83983460  0.62216929  0.78533686    -0.11000
C367        C  0.85415235  0.58870277  0.80310401    -0.04900
C368        C  0.83241471  0.55548054  0.79698715    -0.11100
H369        H  0.71833993  0.49802502  0.72926228     0.07200
H370        H  0.78244176  0.49656298  0.77569835     0.07200
H371        H  0.73923669  0.68417564  0.70403908     0.07300
H372        H  0.80427027  0.68215323  0.74586453     0.07300
H373        H  0.63959510  0.59535416  0.65396075     0.03800
H374        H  0.88142314  0.58906680  0.82549875     0.03800
O375        O  0.59730387  0.75079757  0.55847795    -0.81100
O376        O  0.45342827  0.76486410  0.41247076    -0.65800
O377        O  0.51505733  0.76162087  0.52261688    -1.12400
C378        C  0.49574208  0.63153360  0.50974875     1.05800
O379        O  0.40613433  0.72220073  0.43065549    -0.79000
O380        O  0.41293788  0.70323650  0.51940424    -0.66600
Ni381      Ni  0.56665175  0.78945455  0.52676208     1.34900
C382        C  0.43020333  0.70732372  0.55787006     0.84500
O383        O  0.47992786  0.81775369  0.46848691    -0.79500
O384        O  0.54247164  0.83311708  0.49788088    -0.89800
C385        C  0.41859718  0.74885161  0.40591064     0.84100
O386        O  0.59016987  0.77227979  0.47167562    -0.68000
O387        O  0.45923066  0.64072008  0.49528575    -0.87300
C388        C  0.57354519  0.76633557  0.43334897     0.84900
C389        C  0.50684918  0.84185772  0.48073298     1.06500
H390        H  0.50562304  0.70279851  0.44397541     0.38300
O391        O  0.48783117  0.71141893  0.46805404    -1.10000
O392        O  0.47014282  0.70623705  0.56310541    -0.66600
Ni393      Ni  0.51874186  0.70852508  0.52332270     1.26300
O394        O  0.53366071  0.76590854  0.42761599    -0.66800
O395        O  0.52352578  0.65534182  0.52054279    -0.79100
C396        C  0.58604321  0.72332904  0.58252172     0.84300
O397        O  0.55089770  0.70753619  0.57738311    -0.66300
Ni398      Ni  0.43584735  0.68412340  0.46474369     1.27400
Ni399      Ni  0.48462298  0.76442140  0.46688723     1.26100
H400        H  0.49690152  0.76994056  0.54649765     0.38900
O401        O  0.40480790  0.97017619  0.55624491    -0.81100
O402        O  0.55237187  0.95834228  0.41568002    -0.65800
O403        O  0.48694759  0.96100519  0.52206498    -1.12400
C404        C  0.50702607  0.59150483  0.50973173     1.05800
O405        O  0.59928283  0.00014449  0.43783880    -0.79000
O406        O  0.58930125  0.52116316  0.52404212    -0.66600
Ni407      Ni  0.43494265  0.93357080  0.52167293     1.34900
C408        C  0.57150067  0.51497836  0.56143672     0.84500
O409        O  0.52415675  0.90563613  0.47129445    -0.79500
O410        O  0.45827948  0.89132964  0.48952573    -0.89800
C411        C  0.58778614  0.97380222  0.41220257     0.84100
O412        O  0.41365446  0.95582231  0.46764739    -0.68000
O413        O  0.54319682  0.58266773  0.49483961    -0.87300
C414        C  0.43164947  0.95997754  0.42998839     0.84900
C415        C  0.49564201  0.88189948  0.47920995     1.06500
H416        H  0.49862660  0.52037535  0.44420892     0.38300
O417        O  0.51595045  0.51166878  0.46909151    -1.10000
O418        O  0.53147789  0.51505835  0.56524821    -0.66600
Ni419      Ni  0.48376843  0.51412578  0.52306482     1.26300
O420        O  0.47158104  0.95727344  0.42626737    -0.66800
O421        O  0.47963311  0.56750046  0.52089872    -0.79100
C422        C  0.41580035  0.49751527  0.58054903     0.84300
O423        O  0.45021633  0.51451875  0.57548496    -0.66300
Ni424      Ni  0.56796780  0.53895363  0.46765048     1.27400
Ni425      Ni  0.51930725  0.95873814  0.46833019     1.26100
H426        H  0.50396945  0.95205235  0.54705785     0.38900
C427        C  0.32465778  0.65962932  0.69022308    -0.11100
C428        C  0.33844611  0.62504508  0.67513855    -0.04900
C429        C  0.31755878  0.59244893  0.68547029    -0.11000
C430        C  0.28097953  0.59366202  0.71155842     0.09900
C431        C  0.26630191  0.62829322  0.72814996    -0.02800
C432        C  0.28823112  0.66161358  0.71780319     0.09700
C433        C  0.27339722  0.69520757  0.73587866    -0.12800
C434        C  0.23795988  0.69603642  0.76405113    -0.12800
C435        C  0.21547632  0.66347481  0.77383670     0.09700
C436        C  0.22960775  0.62936100  0.75506369    -0.02800
C437        C  0.25885908  0.56110120  0.72130156    -0.13000
C438        C  0.22250079  0.56227235  0.74663213    -0.13000
C439        C  0.20766173  0.59590804  0.76408719     0.09900
C440        C  0.17139388  0.59680046  0.79070830    -0.11000
C441        C  0.15756137  0.63020347  0.80839273    -0.04900
C442        C  0.17907933  0.66338846  0.80155031    -0.11100
H443        H  0.28959131  0.72092032  0.72886052     0.07200
H444        H  0.22782894  0.72237724  0.77766715     0.07200
H445        H  0.26934354  0.53441136  0.70905405     0.07300
H446        H  0.20611402  0.53646980  0.75253688     0.07300
H447        H  0.36574466  0.62345601  0.65339859     0.03800
H448        H  0.13074986  0.62986883  0.83091260     0.03800
O449        O  0.91687936  0.75085503  0.91617362    -0.81100
O450        O  0.04734481  0.77051929  0.07751184    -0.65800
O451        O  0.99349579  0.76049012  0.96348532    -1.12400
C452        C  0.00969194  0.63169525  0.98805884     1.05800
O453        O  0.09116615  0.72227412  0.07348229    -0.79000
O454        O  0.09337048  0.70458106  0.98465080    -0.66600
Ni455      Ni  0.94233713  0.78847870  0.95404537     1.34900
C456        C  0.08016241  0.70528539  0.94413027     0.84500
O457        O  0.02625455  0.81867031  0.01303180    -0.79500
O458        O  0.96170224  0.83177136  0.98768983    -0.89800
C459        C  0.07959975  0.75279697  0.09084741     0.84100
O460        O  0.91493362  0.76817024  0.00578273    -0.68000
O461        O  0.04568440  0.64159578  0.00286833    -0.87300
C462        C  0.92861141  0.76826542  0.04626452     0.84900
C463        C  0.99781654  0.84191873  0.00204859     1.06500
H464        H  0.99459554  0.70697763  0.04913929     0.38300
O465        O  0.01454672  0.71339186  0.02596298    -1.10000
O466        O  0.04096490  0.70215511  0.93460175    -0.66600
Ni467      Ni  0.98857251  0.70769260  0.96823578     1.26300
O468        O  0.96778334  0.77225928  0.05511264    -0.66800
O469        O  0.98187615  0.65513769  0.97590639    -0.79100
C470        C  0.92931253  0.72081800  0.89806596     0.84300
O471        O  0.96190811  0.70356352  0.91125962    -0.66300
Ni472      Ni  0.06526845  0.68484975  0.03610139     1.27400
Ni473      Ni  0.01982952  0.76621131  0.02094973     1.26100
H474        H  0.01314807  0.76713228  0.94012805     0.38900
O475        O  0.08926560  0.96917734  0.91743277    -0.81100
O476        O  0.95831595  0.95347008  0.07685048    -0.65800
O477        O  0.01378023  0.96328687  0.96471057    -1.12400
C478        C  0.99965968  0.59149293  0.98731595     1.05800
O479        O  0.91764341  0.00404325  0.07378076    -0.79000
O480        O  0.91646570  0.51639238  0.98288228    -0.66600
Ni481      Ni  0.06391698  0.93387005  0.95766796     1.34900
C482        C  0.93014213  0.51667909  0.94278223     0.84500
O483        O  0.97872566  0.90543132  0.01236511    -0.79500
O484        O  0.04469861  0.89258816  0.99460003    -0.89800
C485        C  0.92814228  0.97297527  0.09125828     0.84100
O486        O  0.09076029  0.95708049  0.00771640    -0.68000
O487        O  0.96243605  0.58115744  0.99666382    -0.87300
C488        C  0.07728114  0.95731130  0.04793782     0.84900
C489        C  0.00750672  0.88214214  0.00357635     1.06500
H490        H  0.01256590  0.51652743  0.05077540     0.38300
O491        O  0.99321858  0.51038696  0.02668647    -1.10000
O492        O  0.96906519  0.52260281  0.93459299    -0.66600
Ni493      Ni  0.02065460  0.51585403  0.97037399     1.26300
O494        O  0.03848501  0.95140371  0.05680759    -0.66800
O495        O  0.02849099  0.56811178  0.97911518    -0.79100
C496        C  0.07938158  0.50059895  0.90085899     0.84300
O497        O  0.04906225  0.52011748  0.91489408    -0.66300
Ni498      Ni  0.94294380  0.53959254  0.03338742     1.27400
Ni499      Ni  0.98655125  0.95777428  0.02119424     1.26100
H500        H  0.99432785  0.95737391  0.94054481     0.38900
C501        C  0.32775929  0.84669259  0.29353818    -0.11100
C502        C  0.34753578  0.87977112  0.30472905    -0.04900
C503        C  0.33110493  0.91437473  0.29228652    -0.11000
C504        C  0.29302274  0.91598708  0.26687802     0.09900
C505        C  0.27166049  0.88237471  0.25665752    -0.02800
C506        C  0.28908294  0.84767418  0.27019741     0.09700
C507        C  0.26746042  0.81483955  0.26019112    -0.12800
C508        C  0.22843787  0.81590677  0.23907332    -0.12800
C509        C  0.21071311  0.84968795  0.22481526     0.09700
C510        C  0.23266241  0.88329669  0.23306458    -0.02800
C511        C  0.27595362  0.94968314  0.25091670    -0.13000
C512        C  0.23877346  0.95030881  0.22494257    -0.13000
C513        C  0.21644753  0.91748303  0.21622701     0.09900
C514        C  0.17841340  0.91734309  0.19085709    -0.11000
C515        C  0.15585078  0.88443646  0.18651756    -0.04900
C516        C  0.17174491  0.85064805  0.20185799    -0.11100
H517        H  0.28028162  0.78791320  0.26900466     0.07200
H518        H  0.21239186  0.78986557  0.23374755     0.07200
H519        H  0.29181111  0.97561676  0.25764434     0.07300
H520        H  0.22695439  0.97670548  0.21259040     0.07300
H521        H  0.37572993  0.87850896  0.32568889     0.03800
H522        H  0.12747313  0.88443782  0.16576631     0.03800
C523        C  0.68044185  0.81094465  0.30159938    -0.11100
C524        C  0.66697843  0.84500139  0.31855081    -0.04900
C525        C  0.68732145  0.87791482  0.30878972    -0.11000
C526        C  0.72297520  0.87769604  0.28131425     0.09900
C527        C  0.73688836  0.84377618  0.26206817    -0.02800
C528        C  0.71577860  0.80995786  0.27219777     0.09700
C529        C  0.73034168  0.77702799  0.25214859    -0.12800
C530        C  0.76436644  0.77740716  0.22190489    -0.12800
C531        C  0.78539079  0.81061663  0.21142818     0.09700
C532        C  0.77177469  0.84402705  0.23245798    -0.02800
C533        C  0.74484153  0.91060169  0.27269746    -0.13000
C534        C  0.77962787  0.91064143  0.24495997    -0.13000
C535        C  0.79270973  0.87806889  0.22352565     0.09900
C536        C  0.82619232  0.87874951  0.19301790    -0.11000
C537        C  0.83878142  0.84622152  0.17219675    -0.04900
C538        C  0.81959721  0.81222499  0.18060950    -0.11100
H539        H  0.71494606  0.75093458  0.25918056     0.07200
H540        H  0.77418078  0.75158275  0.20667780     0.07200
H541        H  0.73523633  0.93666485  0.28746320     0.07300
H542        H  0.79570018  0.93668212  0.23963082     0.07300
H543        H  0.64022061  0.84591561  0.34112087     0.03800
H544        H  0.86422168  0.84753641  0.14794771     0.03800
C545        C  0.89272692  0.91255166  0.18792742    -0.09400
C546        C  0.84928948  0.91247580  0.17985401     0.06800
C547        C  0.83168370  0.93824561  0.14914472    -0.03100
C548        C  0.85815846  0.96110311  0.12399662    -0.07600
C549        C  0.90208041  0.95731882  0.12752733     0.06000
C550        C  0.91928630  0.93388667  0.16136170    -0.02600
Br551      Br  0.97849583  0.92643812  0.17052525    -0.02300
H552        H  0.90638471  0.89268507  0.21147813     0.09900
H553        H  0.84439799  0.97897480  0.09826701     0.07900
Br554      Br  0.77263865  0.93924595  0.13507697    -0.02700
C555        C  0.12636019  0.96424266  0.16559242    -0.09400
C556        C  0.16496708  0.94629387  0.15810327     0.06800
C557        C  0.17833474  0.94177601  0.11320793    -0.03100
C558        C  0.15033048  0.94855054  0.07739811    -0.07600
C559        C  0.10893565  0.96068010  0.08529825     0.06000
C560        C  0.09859871  0.97196027  0.12951106    -0.02600
Br561      Br  0.04756068  0.99794027  0.14267801    -0.02300
H562        H  0.11582734  0.96852899  0.19988058     0.09900
H563        H  0.15991963  0.94094604  0.04366163     0.07900
Br564      Br  0.23069960  0.91770050  0.09973337    -0.02700
C565        C  0.85402865  0.77160988  0.07369996    -0.09400
C566        C  0.89712768  0.76650929  0.08402299     0.06800
C567        C  0.90865069  0.76354825  0.13034818    -0.03100
C568        C  0.87876606  0.77047954  0.16408689    -0.07600
C569        C  0.83743831  0.78156017  0.15310312     0.06000
C570        C  0.82454904  0.77909944  0.10758164    -0.02600
Br571      Br  0.76868036  0.79331559  0.08950984    -0.02300
H572        H  0.84352087  0.77299512  0.03883399     0.09900
H573        H  0.88944892  0.77238645  0.19886389     0.07900
Br574      Br  0.96494050  0.75319278  0.15082653    -0.02700
C575        C  0.08480896  0.78868504  0.16157919    -0.09400
C576        C  0.10533028  0.76962631  0.12684722     0.06800
C577        C  0.14952856  0.77168337  0.12387612    -0.03100
C578        C  0.17157848  0.79571232  0.15219706    -0.07600
C579        C  0.15047129  0.81719621  0.18428859     0.06000
C580        C  0.10704499  0.81206629  0.19048027    -0.02600
Br581      Br  0.07621145  0.83911763  0.23509994    -0.02300
H582        H  0.05099311  0.78695860  0.16475124     0.09900
H583        H  0.20485772  0.79990863  0.14658096     0.07900
Br584      Br  0.18113688  0.74687581  0.07806505    -0.02700
C585        C  0.18087828  0.69472985  0.87465884    -0.09400
C586        C  0.16393943  0.69403424  0.83078158     0.06800
C587        C  0.12235478  0.70687383  0.82442910    -0.03100
C588        C  0.09646543  0.71337873  0.86177610    -0.07600
C589        C  0.11136993  0.70775698  0.90627910     0.06000
C590        C  0.15519739  0.70088152  0.91230526    -0.02600
Br591      Br  0.18208270  0.69401788  0.97011798    -0.02300
H592        H  0.21275986  0.68486228  0.88024369     0.09900
H593        H  0.06365154  0.72006024  0.85570004     0.07900
Br594      Br  0.09744211  0.70834730  0.76524294    -0.02700
C595        C  0.08484337  0.53449591  0.82876873    -0.09400
C596        C  0.10516899  0.51631338  0.86486351     0.06800
C597        C  0.14922375  0.51884420  0.86967466    -0.03100
C598        C  0.17152373  0.54225776  0.84101947    -0.07600
C599        C  0.15047402  0.56324203  0.80780737     0.06000
C600        C  0.10722149  0.55785555  0.80019637    -0.02600
Br601      Br  0.07687289  0.58492174  0.75435325    -0.02300
H602        H  0.05103135  0.53240224  0.82461541     0.09900
H603        H  0.20470671  0.54681832  0.84747827     0.07900
Br604      Br  0.17962776  0.99628108  0.91901556    -0.02700
C605        C  0.63011277  0.92382814  0.31114798    -0.09400
C606        C  0.66892596  0.91163537  0.32842406     0.06800
C607        C  0.68397785  0.92563915  0.36973760    -0.03100
C608        C  0.65848672  0.94925061  0.39497892    -0.07600
C609        C  0.61768061  0.95815074  0.37991268     0.06000
C610        C  0.60429767  0.94677024  0.33664499    -0.02600
Br611      Br  0.55022720  0.95990877  0.31182386    -0.02300
H612        H  0.61844280  0.91300835  0.27934041     0.09900
H613        H  0.66909410  0.95789137  0.42817214     0.07900
Br614      Br  0.73653200  0.90941664  0.39547416    -0.02700
C615        C  0.42233149  0.95807664  0.34577632    -0.09400
C616        C  0.40469416  0.96462360  0.38845212     0.06800
C617        C  0.36041075  0.96977428  0.39052212    -0.03100
C618        C  0.33495074  0.96023700  0.35338573    -0.07600
C619        C  0.35280103  0.94635019  0.31377941     0.06000
C620        C  0.39666819  0.94978744  0.30841136    -0.02600
Br621      Br  0.42298450  0.93558248  0.25306464    -0.02300
H622        H  0.45609006  0.95589472  0.34220009     0.09900
H623        H  0.30116698  0.95909530  0.35764991     0.07900
Br624      Br  0.33200717  0.98715568  0.44345461    -0.02700
C625        C  0.34500504  0.52073455  0.59944414    -0.09400
C626        C  0.38613313  0.51218633  0.61368329     0.06800
C627        C  0.39995449  0.52314834  0.65688591    -0.03100
C628        C  0.37444092  0.54599086  0.68293326    -0.07600
C629        C  0.33537054  0.55824033  0.66626924     0.06000
C630        C  0.31967911  0.54402610  0.62528932    -0.02600
Br631      Br  0.26655073  0.55975969  0.60046385    -0.02300
H632        H  0.33401124  0.51218251  0.56635204     0.09900
H633        H  0.38656579  0.55676570  0.71456195     0.07900
Br634      Br  0.45427818  0.50943665  0.68055696    -0.02700
C635        C  0.58607920  0.76976680  0.34967094    -0.09400
C636        C  0.60204919  0.76254519  0.39335984     0.06800
C637        C  0.64612234  0.75672655  0.39804687    -0.03100
C638        C  0.67304021  0.76473630  0.36190163    -0.07200
C639        C  0.65718489  0.77886816  0.32091899     0.06000
C640        C  0.61322147  0.77739829  0.31360593    -0.02600
Br641      Br  0.58893863  0.79432248  0.25763900    -0.02300
H642        H  0.55252507  0.77304123  0.34428432     0.09900
H643        H  0.70668320  0.76499043  0.36808410     0.07900
Br644      Br  0.67248696  0.74054751  0.45345963    -0.02700
C645        C  0.32587292  0.79287946  0.34612629    -0.09400
C646        C  0.34694134  0.81240010  0.31211194     0.06800
C647        C  0.38916843  0.80372624  0.30304091    -0.03100
C648        C  0.41123399  0.78003851  0.33203639    -0.07600
C649        C  0.39146789  0.76383143  0.36946249     0.06000
C650        C  0.34750896  0.76776135  0.37397699    -0.02600
Br651      Br  0.31566680  0.74271196  0.41944892    -0.02300
H652        H  0.29316228  0.79899081  0.35298662     0.09900
H653        H  0.44463675  0.77600246  0.32682788     0.07900
Br654      Br  0.41887914  0.82608223  0.25382142    -0.02700
C655        C  0.41905683  0.70098964  0.64149776    -0.09400
C656        C  0.40253004  0.71026781  0.59861374     0.06800
C657        C  0.35860282  0.71709002  0.59524247    -0.03100
C658        C  0.33199902  0.70717405  0.63094082    -0.07600
C659        C  0.34836577  0.69134896  0.67072945     0.06000
C660        C  0.39235948  0.69240657  0.67757165    -0.02600
Br661      Br  0.41703937  0.67468410  0.73298209    -0.02300
H662        H  0.45260628  0.69715871  0.64613435     0.09900
H663        H  0.29826689  0.70764703  0.62538979     0.07900
Br664      Br  0.33239192  0.73832045  0.54254387    -0.02700
C665        C  0.91584575  0.50778321  0.86016783    -0.09400
C666        C  0.89981892  0.51251188  0.90396910     0.06800
C667        C  0.85558253  0.51710230  0.90834714    -0.03100
C668        C  0.83034748  0.52286745  0.86970348    -0.07600
C669        C  0.84815561  0.52490867  0.82659801     0.06000
C670        C  0.89035659  0.51348666  0.82183127    -0.02600
Br671      Br  0.91660784  0.51386848  0.76377321    -0.02300
H672        H  0.94910052  0.50261742  0.85545615     0.09900
H673        H  0.79788944  0.53131922  0.87402928     0.07900
Br674      Br  0.82739905  0.52090500  0.96534618    -0.02700
C675        C  0.92553385  0.68507303  0.82693665    -0.09400
C676        C  0.90426117  0.70378865  0.86152103     0.06800
C677        C  0.86007805  0.70097468  0.86398564    -0.03100
C678        C  0.83868484  0.67709809  0.83480162    -0.07600
C679        C  0.86053633  0.65586397  0.80306857     0.06000
C680        C  0.90402558  0.66129825  0.79776007    -0.02600
Br681      Br  0.93575394  0.63420129  0.75389853    -0.02300
H682        H  0.95940447  0.68730582  0.82424302     0.09900
H683        H  0.80535675  0.67255710  0.83966616     0.07900
Br684      Br  0.82782942  0.72412838  0.91065609    -0.02700
C685        C  0.58404350  0.52088832  0.64507725    -0.09400
C686        C  0.59914412  0.51043664  0.60246957     0.06800
C687        C  0.64249356  0.50134983  0.59909640    -0.03100
C688        C  0.67046051  0.51022818  0.63440990    -0.07600
C689        C  0.65602495  0.52766118  0.67356002     0.06000
C690        C  0.61208083  0.52864591  0.68075359    -0.02600
Br691      Br  0.58968972  0.54919024  0.73519614    -0.02300
H692        H  0.55088520  0.52662384  0.64951484     0.09900
H693        H  0.70398112  0.50810450  0.62862631     0.07900
Br694      Br  0.66617247  0.47906054  0.54622389    -0.02700
C695        C  0.65738555  0.69976779  0.59991540    -0.09400
C696        C  0.61631853  0.70689523  0.61467198     0.06800
C697        C  0.60354218  0.69340183  0.65710886    -0.03100
C698        C  0.63072168  0.67087346  0.68237621    -0.07600
C699        C  0.66998764  0.66042704  0.66526783     0.06000
C700        C  0.68391837  0.67596172  0.62439850    -0.02600
Br701      Br  0.73588300  0.66105799  0.59735073    -0.02300
H702        H  0.66740656  0.70979324  0.56718581     0.09900
H703        H  0.61965370  0.65860879  0.71355799     0.07900
Br704      Br  0.54847209  0.70265049  0.68079880    -0.02700
loop_ 
_geom_bond_atom_site_label_1 
_geom_bond_atom_site_label_2 
_geom_bond_distance 
_geom_bond_site_symmetry_2 
_ccdc_geom_bond_type 
C1            C2   1.396       .  A
C1            C6   1.426       .  A
C1          C337   1.492       .  S
C2            C3   1.386       .  A
C2           H21   1.087       .  S
C3            C4   1.404       .  A
C3          C347   1.475       .  S
C4            C5   1.423       .  A
C4           C11   1.402       .  A
C5            C6   1.427       .  A
C5           C10   1.421       .  A
C6            C7   1.408       .  A
C7            C8   1.408       .  A
C7           H17   1.083   1_545  S
C8            C9   1.409       .  A
C8           H18   1.083   1_545  S
C9           C10   1.424       .  A
C9           C16   1.424       .  A
C10          C13   1.424       .  A
C11          C12   1.386       .  A
C11          H19   1.083       .  S
C12          C13   1.402       .  A
C12          H20   1.083       .  S
C13          C14   1.407       .  A
C14          C15   1.388       .  A
C14         C327   1.481       .  S
C15          C16   1.397       .  A
C15          H22   1.087       .  S
C16         C317   1.488       .  S
O23         Ni29   1.933       .  S
O23          C44   1.272       .  A
O24         Ni47   1.884       .  S
O24          C33   1.265       .  A
O25         Ni29   1.930       .  S
O25         Ni47   1.907       .  S
O25         Ni41   1.918       .  S
O25          H48   0.965       .  S
C26          C52   1.486       .  S
C26          O43   1.274       .  A
C26          O35   1.276       .  A
O27         Ni46   1.938       .  S
O27          C33   1.273       .  A
O28         Ni46   1.911       .  S
O28          C30   1.269       .  A
Ni29         O32   1.941       .  S
Ni29         O34   1.905       .  S
C30         C304   1.503       .  S
C30          O40   1.278       .  A
O31         Ni47   1.930       .  S
O31          C37   1.274       .  A
O32          C37   1.275       .  A
C33         C297   1.474       .  S
O34          C36   1.267       .  A
O35         Ni46   1.946       .  S
C36         C284   1.504       .  S
C36          O42   1.278       .  A
C37          C63   1.487       .  S
H38          O39   0.966       .  S
O39         Ni47   1.914       .  S
O39         Ni41   1.903       .  S
O39         Ni46   1.929       .  S
O40         Ni41   1.953       .  S
Ni41         O45   1.891       .  S
Ni41         O43   1.926       .  S
O42         Ni47   1.954       .  S
C44         C344   1.469       .  S
C44          O45   1.265       .  A
O49         Ni55   1.931       .  S
O49         C422   1.272       .  A
O50         Ni73   1.888       .  S
O50          C59   1.263       .  A
O51         Ni55   1.930       .  S
O51         Ni73   1.904       .  S
O51        Ni419   1.919       .  S
O51          H74   0.966       .  S
C52          O69   1.275       .  A
C52          O61   1.275       .  A
O53        Ni424   1.936       .  S
O53          C59   1.272       .  A
O54         Ni72   1.904       .  S
O54          C56   1.267       .  A
Ni55         O58   1.948       .  S
Ni55         O60   1.904       .  S
C56         C334   1.501       .  S
C56          O66   1.278       .  A
O57         Ni73   1.923       .  S
O57          C63   1.272       .  A
O58          C63   1.275       .  A
C59         C257   1.467       .  S
O60          C62   1.266       .  A
O61         Ni72   1.941       .  S
C62         C264   1.501       .  S
C62          O68   1.279       .  A
H64          O65   0.966       .  S
O65         Ni67   1.907       .  S
O65         Ni72   1.929       .  S
O65        Ni425   1.912   1_545  S
O66         Ni67   1.956       .  S
Ni67         O71   1.891       .  S
Ni67         O69   1.930       .  S
Ni67        O403   1.919   1_545  S
O68         Ni73   1.955       .  S
C70         C274   1.466   1_565  S
C70          O71   1.266   1_565  A
C70         O401   1.272       .  A
Ni72        O405   1.936       .  S
Ni73        O417   1.912       .  S
C75          C76   1.397       .  A
C75          C80   1.425       .  A
C75         C307   1.490       .  S
C76          C77   1.387       .  A
C76          H95   1.087       .  S
C77          C78   1.403       .  A
C77         C277   1.474       .  S
C78          C79   1.423       .  A
C78          C85   1.402       .  A
C79          C80   1.425       .  A
C79          C84   1.419       .  A
C80          C81   1.408       .  A
C81          C82   1.408       .  A
C81          H91   1.083       .  S
C82          C83   1.408       .  A
C82          H92   1.083       .  S
C83          C84   1.425       .  A
C83          C90   1.425       .  A
C84          C87   1.422       .  A
C85          C86   1.384       .  A
C85          H93   1.083       .  S
C86          C87   1.403       .  A
C86          H94   1.083       .  S
C87          C88   1.403       .  A
C88          C89   1.388       .  A
C88         C247   1.473       .  S
C89          C90   1.396       .  A
C89          H96   1.087       .  S
C90         C234   1.488       .  S
O97        Ni103   1.939       .  S
O97         C118   1.274       .  A
O98        Ni121   1.889       .  S
O98         C107   1.265       .  A
O99        Ni103   1.928       .  S
O99        Ni121   1.902   1_656  S
O99        Ni115   1.916       .  S
O99         H122   0.966   1_655  S
C100        C126   1.486   1_455  S
C100        O117   1.270   1_455  A
C100        O109   1.275   1_556  A
O101       Ni120   1.932       .  S
O101        C107   1.272       .  A
O102       Ni120   1.909   1_556  S
O102        C104   1.267       .  A
Ni103       O106   1.955       .  S
Ni103       O108   1.913   1_556  S
C104        C237   1.506       .  S
C104        O114   1.281       .  A
O105       Ni121   1.918       .  S
O105        C111   1.270   1_455  A
O106        C111   1.276   1_556  A
C107        C224   1.472       .  S
O108        C110   1.271       .  A
O109       Ni120   1.950       .  S
C110        C214   1.509       .  S
C110        O116   1.279       .  A
C111        C137   1.485   1_655  S
H112        O113   0.967   1_655  S
O113       Ni121   1.919       .  S
O113       Ni115   1.904   1_454  S
O113       Ni120   1.930       .  S
O114       Ni115   1.958   1_455  S
Ni115       O119   1.888       .  S
Ni115       O117   1.921       .  S
O116       Ni121   1.959   1_655  S
C118        C324   1.475       .  S
C118        O119   1.265       .  A
O123       Ni129   1.924       .  S
O123        C496   1.271       .  A
O124       Ni147   1.890       .  S
O124        C133   1.266       .  A
O125       Ni129   1.925       .  S
O125       Ni147   1.900   1_456  S
O125       Ni493   1.918       .  S
O125        H148   0.967   1_455  S
C126        O143   1.269   1_655  A
C126        O135   1.275       .  A
O127       Ni498   1.933       .  S
O127        C133   1.274       .  A
O128       Ni146   1.908   1_556  S
O128        C130   1.268       .  A
Ni129       O132   1.947       .  S
Ni129       O134   1.902   1_556  S
C130        C314   1.502       .  S
C130        O140   1.282       .  A
O131       Ni147   1.924       .  S
O131        C137   1.269   1_655  A
O132        C137   1.272   1_556  A
C133        C197   1.474       .  S
O134        C136   1.269       .  A
O135       Ni146   1.954   1_556  S
C136        C207   1.494       .  S
C136        O142   1.282       .  A
H138        O139   0.965   1_455  S
O139       Ni141   1.898   1_654  S
O139       Ni146   1.923       .  S
O139       Ni499   1.918   1_545  S
O140       Ni141   1.958   1_655  S
Ni141       O145   1.887       .  S
Ni141       O143   1.921       .  S
Ni141       O477   1.918   1_545  S
O142       Ni147   1.963   1_455  S
C144        C244   1.464       .  S
C144        O145   1.266       .  A
C144        O475   1.271   1_545  A
Ni146       O479   1.933       .  S
Ni147       O491   1.918       .  S
C149        C150   1.391       .  A
C149        C154   1.405       .  A
C149        C294   1.479       .  S
C150        C151   1.398       .  A
C150        H169   1.086       .  S
C151        C152   1.420       .  A
C151        C267   1.489       .  S
C152        C153   1.424       .  A
C152        C159   1.407       .  A
C153        C154   1.421       .  A
C153        C158   1.418       .  A
C154        C155   1.403       .  A
C155        C156   1.385       .  A
C155        H165   1.082       .  S
C156        C157   1.402       .  A
C156        H166   1.082       .  S
C157        C158   1.422       .  A
C157        C164   1.408       .  A
C158        C161   1.421       .  A
C159        C160   1.404       .  A
C159        H167   1.083       .  S
C160        C161   1.407       .  A
C160        H168   1.083       .  S
C161        C162   1.418       .  A
C162        C163   1.395       .  A
C162        C204   1.481       .  S
C163        C164   1.390       .  A
C163        H170   1.087       .  S
C164        C227   1.480       .  S
C171        C172   1.396       .  A
C171        C176   1.428       .  A
C171        C287   1.490       .  S
C172        C173   1.385       .  A
C172        H191   1.087       .  S
C173        C174   1.401       .  A
C173        C254   1.472       .  S
C174        C175   1.423       .  A
C174        C181   1.401       .  A
C175        C176   1.427       .  A
C175        C180   1.420       .  A
C176        C177   1.409       .  A
C177        C178   1.411       .  A
C177        H187   1.083       .  S
C178        C179   1.409       .  A
C178        H188   1.083       .  S
C179        C180   1.427       .  A
C179        C186   1.427       .  A
C180        C183   1.424       .  A
C181        C182   1.383       .  A
C181        H189   1.083       .  S
C182        C183   1.401       .  A
C182        H190   1.083       .  S
C183        C184   1.403       .  A
C184        C185   1.387       .  A
C184        C194   1.476       .  S
C185        C186   1.394       .  A
C185        H192   1.087       .  S
C186        C217   1.490       .  S
C193        C194   1.399       .  A
C193        C198   1.391       .  A
C193        H200   1.084       .  S
C194        C195   1.408       .  A
C195        C196   1.398       .  A
C195       Br202   1.919       .  S
C196        C197   1.405       .  A
C196        H201   1.084       .  S
C197        C198   1.413       .  A
C198       Br199   1.917       .  S
C203        C204   1.405       .  A
C203        C208   1.406       .  A
C203        H210   1.083       .  S
C204        C205   1.409       .  A
C205        C206   1.398       .  A
C205       Br212   1.921       .  S
C206        C207   1.407       .  A
C206        H211   1.083       .  S
C207        C208   1.414       .  A
C208       Br209   1.915       .  S
C213        C214   1.412       .  A
C213        C218   1.405       .  A
C213        H220   1.083       .  S
C214        C215   1.420       .  A
C215        C216   1.407       .  A
C215       Br222   1.919       .  S
C216        C217   1.407       .  A
C216        H221   1.084       .  S
C217        C218   1.408       .  A
C218       Br219   1.918       .  S
C223        C224   1.404       .  A
C223        C228   1.394       .  A
C223        H230   1.082       .  S
C224        C225   1.411       .  A
C225        C226   1.395       .  A
C225       Br232   1.918       .  S
C226        C227   1.403       .  A
C226        H231   1.084       .  S
C227        C228   1.407       .  A
C228       Br229   1.920       .  S
C233        C234   1.402       .  A
C233        C238   1.406       .  A
C233        H240   1.084       .  S
C234        C235   1.410       .  A
C235        C236   1.404       .  A
C235       Br242   1.917       .  S
C236        C237   1.409       .  A
C236        H241   1.083       .  S
C237        C238   1.424       .  A
C238       Br239   1.921       .  S
C243        C244   1.402       .  A
C243        C248   1.393       .  A
C243        H250   1.084       .  S
C244        C245   1.410       .  A
C245        C246   1.394       .  A
C245       Br604   1.922   1_545  S
C246        C247   1.402       .  A
C246        H251   1.084       .  S
C247        C248   1.406       .  A
C248       Br249   1.919       .  S
Br252       C597   1.922       .  S
C253        C254   1.400       .  A
C253        C258   1.393       .  A
C253        H260   1.084       .  S
C254        C255   1.406       .  A
C255        C256   1.397       .  A
C255       Br262   1.918       .  S
C256        C257   1.404       .  A
C256        H261   1.084       .  S
C257        C258   1.409       .  A
C258       Br259   1.920       .  S
C263        C264   1.407       .  A
C263        C268   1.403       .  A
C263        H270   1.082       .  S
C264        C265   1.421       .  A
C265        C266   1.404       .  A
C265       Br272   1.922       .  S
C266        C267   1.401       .  A
C266        H271   1.084       .  S
C267        C268   1.411       .  A
C268       Br269   1.917       .  S
C273        C274   1.403       .  A
C273        C278   1.397       .  A
C273        H280   1.084       .  S
C274        C275   1.408       .  A
C275        C276   1.394       .  A
C275       Br282   1.920       .  S
C276        C277   1.401       .  A
C276        H281   1.084       .  S
C277        C278   1.407       .  A
C278       Br279   1.919       .  S
C283        C284   1.408       .  A
C283        C288   1.406       .  A
C283        H290   1.083       .  S
C284        C285   1.422       .  A
C285        C286   1.406       .  A
C285       Br292   1.923       .  S
C286        C287   1.402       .  A
C286        H291   1.084       .  S
C287        C288   1.414       .  A
C288       Br289   1.918       .  S
C293        C294   1.403       .  A
C293        C298   1.397       .  A
C293        H300   1.083       .  S
C294        C295   1.406       .  A
C295        C296   1.392       .  A
C295       Br302   1.920       .  S
C296        C297   1.405       .  A
C296        H301   1.084       .  S
C297        C298   1.412       .  A
C298       Br299   1.917       .  S
C303        C304   1.408       .  A
C303        C308   1.404       .  A
C303        H310   1.082       .  S
C304        C305   1.420       .  A
C305        C306   1.405       .  A
C305       Br312   1.917       .  S
C306        C307   1.401       .  A
C306        H311   1.084       .  S
C307        C308   1.412       .  A
C308       Br309   1.918       .  S
C313        C314   1.408       .  A
C313        C318   1.402       .  A
C313        H320   1.083       .  S
C314        C315   1.423       .  A
C315        C316   1.405       .  A
C315       Br322   1.923       .  S
C316        C317   1.402       .  A
C316        H321   1.084       .  S
C317        C318   1.411       .  A
C318       Br319   1.918       .  S
C323        C324   1.406       .  A
C323        C328   1.396       .  A
C323        H330   1.084       .  S
C324        C325   1.411       .  A
C325        C326   1.397       .  A
C325       Br332   1.920       .  S
C326        C327   1.402       .  A
C326        H331   1.084       .  S
C327        C328   1.407       .  A
C328       Br329   1.920       .  S
C333        C334   1.406       .  A
C333        C338   1.406       .  A
C333        H340   1.083       .  S
C334        C335   1.420       .  A
C335        C336   1.405       .  A
C335       Br342   1.921   1_545  S
C336        C337   1.401       .  A
C336        H341   1.083       .  S
C337        C338   1.416       .  A
C338       Br339   1.919       .  S
C343        C344   1.404       .  A
C343        C348   1.397       .  A
C343        H350   1.084       .  S
C344        C345   1.409       .  A
C345        C346   1.394       .  A
C345       Br352   1.921       .  S
C346        C347   1.402       .  A
C346        H351   1.084       .  S
C347        C348   1.407       .  A
C348       Br349   1.919       .  S
C353        C354   1.396       .  A
C353        C358   1.426       .  A
C353        C689   1.492       .  S
C354        C355   1.386       .  A
C354        H373   1.087       .  S
C355        C356   1.404       .  A
C355        C699   1.475       .  S
C356        C357   1.423       .  A
C356        C363   1.402       .  A
C357        C358   1.427       .  A
C357        C362   1.421       .  A
C358        C359   1.408       .  A
C359        C360   1.408       .  A
C359        H369   1.083       .  S
C360        C361   1.409       .  A
C360        H370   1.083       .  S
C361        C362   1.424       .  A
C361        C368   1.424       .  A
C362        C365   1.424       .  A
C363        C364   1.386       .  A
C363        H371   1.083       .  S
C364        C365   1.402       .  A
C364        H372   1.083       .  S
C365        C366   1.407       .  A
C366        C367   1.388       .  A
C366        C679   1.481       .  S
C367        C368   1.397       .  A
C367        H374   1.087       .  S
C368        C669   1.488       .  S
O375       Ni381   1.933       .  S
O375        C396   1.272       .  A
O376       Ni399   1.884       .  S
O376        C385   1.265       .  A
O377       Ni381   1.930       .  S
O377       Ni399   1.907       .  S
O377       Ni393   1.918       .  S
O377        H400   0.965       .  S
C378        C404   1.486       .  S
C378        O395   1.274       .  A
C378        O387   1.276       .  A
O379       Ni398   1.938       .  S
O379        C385   1.273       .  A
O380       Ni398   1.911       .  S
O380        C382   1.269       .  A
Ni381       O384   1.941       .  S
Ni381       O386   1.905       .  S
C382        C656   1.503       .  S
C382        O392   1.278       .  A
O383       Ni399   1.930       .  S
O383        C389   1.274       .  A
O384        C389   1.275       .  A
C385        C649   1.474       .  S
O386        C388   1.267       .  A
O387       Ni398   1.946       .  S
C388        C636   1.504       .  S
C388        O394   1.278       .  A
C389        C415   1.487       .  S
H390        O391   0.966       .  S
O391       Ni399   1.914       .  S
O391       Ni393   1.903       .  S
O391       Ni398   1.929       .  S
O392       Ni393   1.953       .  S
Ni393       O397   1.891       .  S
Ni393       O395   1.926       .  S
O394       Ni399   1.954       .  S
C396        C696   1.469       .  S
C396        O397   1.265       .  A
O401       Ni407   1.931       .  S
O402       Ni425   1.888       .  S
O402        C411   1.263       .  A
O403       Ni407   1.930       .  S
O403       Ni425   1.904       .  S
O403        H426   0.966       .  S
C404        O421   1.275       .  A
C404        O413   1.275       .  A
O405        C411   1.272   1_545  A
O406       Ni424   1.904       .  S
O406        C408   1.267       .  A
Ni407       O410   1.948       .  S
Ni407       O412   1.904       .  S
C408        C686   1.501       .  S
C408        O418   1.279       .  A
O409       Ni425   1.923       .  S
O409        C415   1.272       .  A
O410        C415   1.275       .  A
C411        C609   1.467       .  S
O412        C414   1.266       .  A
O413       Ni424   1.941       .  S
C414        C616   1.501       .  S
C414        O420   1.279       .  A
H416        O417   0.966       .  S
O417       Ni419   1.907       .  S
O417       Ni424   1.929       .  S
O418       Ni419   1.956       .  S
Ni419       O423   1.891       .  S
Ni419       O421   1.930       .  S
O420       Ni425   1.955       .  S
C422        C626   1.466       .  S
C422        O423   1.266       .  A
C427        C428   1.397       .  A
C427        C432   1.425       .  A
C427        C659   1.490       .  S
C428        C429   1.387       .  A
C428        H447   1.087       .  S
C429        C430   1.403       .  A
C429        C629   1.474       .  S
C430        C431   1.423       .  A
C430        C437   1.402       .  A
C431        C432   1.425       .  A
C431        C436   1.419       .  A
C432        C433   1.408       .  A
C433        C434   1.408       .  A
C433        H443   1.083       .  S
C434        C435   1.408       .  A
C434        H444   1.083       .  S
C435        C436   1.425       .  A
C435        C442   1.425       .  A
C436        C439   1.422       .  A
C437        C438   1.384       .  A
C437        H445   1.083       .  S
C438        C439   1.403       .  A
C438        H446   1.083       .  S
C439        C440   1.403       .  A
C440        C441   1.388       .  A
C440        C599   1.473       .  S
C441        C442   1.396       .  A
C441        H448   1.087       .  S
C442        C586   1.488       .  S
O449       Ni455   1.939       .  S
O449        C470   1.274       .  A
O450       Ni473   1.889       .  S
O450        C459   1.265       .  A
O451       Ni455   1.928       .  S
O451       Ni473   1.902   1_656  S
O451       Ni467   1.916       .  S
O451        H474   0.966   1_655  S
C452        C478   1.486   1_455  S
C452        O469   1.270   1_455  A
C452        O461   1.275   1_556  A
O453       Ni472   1.932       .  S
O453        C459   1.272       .  A
O454       Ni472   1.909   1_556  S
O454        C456   1.267       .  A
Ni455       O458   1.955       .  S
Ni455       O460   1.913   1_556  S
C456        C589   1.506       .  S
C456        O466   1.281       .  A
O457       Ni473   1.918       .  S
O457        C463   1.270   1_455  A
O458        C463   1.276   1_556  A
C459        C576   1.472       .  S
O460        C462   1.271       .  A
O461       Ni472   1.950       .  S
C462        C566   1.509       .  S
C462        O468   1.279       .  A
C463        C489   1.485   1_655  S
H464        O465   0.967   1_655  S
O465       Ni473   1.918       .  S
O465       Ni467   1.904   1_454  S
O465       Ni472   1.930       .  S
O466       Ni467   1.958   1_455  S
Ni467       O471   1.888       .  S
Ni467       O469   1.921       .  S
O468       Ni473   1.959   1_655  S
C470        C676   1.475       .  S
C470        O471   1.265       .  A
O475       Ni481   1.924       .  S
O476       Ni499   1.890       .  S
O476        C485   1.266       .  A
O477       Ni481   1.925       .  S
O477       Ni499   1.900   1_456  S
O477        H500   0.967   1_455  S
C478        O495   1.269   1_655  A
C478        O487   1.275       .  A
O479        C485   1.274   1_545  A
O480       Ni498   1.908   1_556  S
O480        C482   1.268       .  A
Ni481       O484   1.947       .  S
Ni481       O486   1.902   1_556  S
C482        C666   1.502       .  S
C482        O492   1.282       .  A
O483       Ni499   1.924       .  S
O483        C489   1.269   1_655  A
O484        C489   1.272   1_556  A
C485        C549   1.474       .  S
O486        C488   1.269       .  A
O487       Ni498   1.954   1_556  S
C488        C559   1.494       .  S
C488        O494   1.282       .  A
H490        O491   0.965   1_455  S
O491       Ni493   1.898   1_654  S
O491       Ni498   1.923       .  S
O492       Ni493   1.958   1_655  S
Ni493       O497   1.888       .  S
Ni493       O495   1.921       .  S
O494       Ni499   1.963   1_455  S
C496        C596   1.464       .  S
C496        O497   1.266       .  A
C501        C502   1.391       .  A
C501        C506   1.405       .  A
C501        C646   1.478       .  S
C502        C503   1.398       .  A
C502        H521   1.086       .  S
C503        C504   1.420       .  A
C503        C619   1.489       .  S
C504        C505   1.424       .  A
C504        C511   1.407       .  A
C505        C506   1.421       .  A
C505        C510   1.418       .  A
C506        C507   1.403       .  A
C507        C508   1.385       .  A
C507        H517   1.082       .  S
C508        C509   1.402       .  A
C508        H518   1.082       .  S
C509        C510   1.422       .  A
C509        C516   1.408       .  A
C510        C513   1.421       .  A
C511        C512   1.404       .  A
C511        H519   1.083       .  S
C512        C513   1.407       .  A
C512        H520   1.083       .  S
C513        C514   1.418       .  A
C514        C515   1.395       .  A
C514        C556   1.481       .  S
C515        C516   1.390       .  A
C515        H522   1.087       .  S
C516        C579   1.480       .  S
C523        C524   1.396       .  A
C523        C528   1.428       .  A
C523        C639   1.490       .  S
C524        C525   1.385       .  A
C524        H543   1.087       .  S
C525        C526   1.401       .  A
C525        C606   1.472       .  S
C526        C527   1.423       .  A
C526        C533   1.401       .  A
C527        C528   1.427       .  A
C527        C532   1.420       .  A
C528        C529   1.409       .  A
C529        C530   1.411       .  A
C529        H539   1.083       .  S
C530        C531   1.409       .  A
C530        H540   1.083       .  S
C531        C532   1.427       .  A
C531        C538   1.427       .  A
C532        C535   1.424       .  A
C533        C534   1.384       .  A
C533        H541   1.083       .  S
C534        C535   1.401       .  A
C534        H542   1.083       .  S
C535        C536   1.403       .  A
C536        C537   1.387       .  A
C536        C546   1.476       .  S
C537        C538   1.394       .  A
C537        H544   1.087       .  S
C538        C569   1.490       .  S
C545        C546   1.399       .  A
C545        C550   1.391       .  A
C545        H552   1.084       .  S
C546        C547   1.408       .  A
C547        C548   1.398       .  A
C547       Br554   1.919       .  S
C548        C549   1.405       .  A
C548        H553   1.084       .  S
C549        C550   1.413       .  A
C550       Br551   1.917       .  S
C555        C556   1.405       .  A
C555        C560   1.406       .  A
C555        H562   1.083       .  S
C556        C557   1.409       .  A
C557        C558   1.398       .  A
C557       Br564   1.921       .  S
C558        C559   1.407       .  A
C558        H563   1.083       .  S
C559        C560   1.414       .  A
C560       Br561   1.915       .  S
C565        C566   1.412       .  A
C565        C570   1.405       .  A
C565        H572   1.083       .  S
C566        C567   1.420       .  A
C567        C568   1.407       .  A
C567       Br574   1.919       .  S
C568        C569   1.407       .  A
C568        H573   1.084       .  S
C569        C570   1.408       .  A
C570       Br571   1.918       .  S
C575        C576   1.404       .  A
C575        C580   1.394       .  A
C575        H582   1.082       .  S
C576        C577   1.411       .  A
C577        C578   1.395       .  A
C577       Br584   1.918       .  S
C578        C579   1.403       .  A
C578        H583   1.084       .  S
C579        C580   1.407       .  A
C580       Br581   1.920       .  S
C585        C586   1.402       .  A
C585        C590   1.406       .  A
C585        H592   1.084       .  S
C586        C587   1.410       .  A
C587        C588   1.404       .  A
C587       Br594   1.917       .  S
C588        C589   1.409       .  A
C588        H593   1.083       .  S
C589        C590   1.424       .  A
C590       Br591   1.921       .  S
C595        C596   1.402       .  A
C595        C600   1.393       .  A
C595        H602   1.084       .  S
C596        C597   1.410       .  A
C597        C598   1.394       .  A
C598        C599   1.402       .  A
C598        H603   1.084       .  S
C599        C600   1.406       .  A
C600       Br601   1.919       .  S
C605        C606   1.400       .  A
C605        C610   1.393       .  A
C605        H612   1.084       .  S
C606        C607   1.406       .  A
C607        C608   1.397       .  A
C607       Br614   1.918       .  S
C608        C609   1.404       .  A
C608        H613   1.084       .  S
C609        C610   1.409       .  A
C610       Br611   1.920       .  S
C615        C616   1.407       .  A
C615        C620   1.403       .  A
C615        H622   1.082       .  S
C616        C617   1.421       .  A
C617        C618   1.404       .  A
C617       Br624   1.922       .  S
C618        C619   1.401       .  A
C618        H623   1.084       .  S
C619        C620   1.411       .  A
C620       Br621   1.917       .  S
C625        C626   1.403       .  A
C625        C630   1.397       .  A
C625        H632   1.084       .  S
C626        C627   1.407       .  A
C627        C628   1.394       .  A
C627       Br634   1.920       .  S
C628        C629   1.401       .  A
C628        H633   1.084       .  S
C629        C630   1.407       .  A
C630       Br631   1.919       .  S
C635        C636   1.408       .  A
C635        C640   1.406       .  A
C635        H642   1.083       .  S
C636        C637   1.422       .  A
C637        C638   1.406       .  A
C637       Br644   1.923       .  S
C638        C639   1.402       .  A
C638        H643   1.084       .  S
C639        C640   1.414       .  A
C640       Br641   1.918       .  S
C645        C646   1.403       .  A
C645        C650   1.397       .  A
C645        H652   1.083       .  S
C646        C647   1.406       .  A
C647        C648   1.392       .  A
C647       Br654   1.920       .  S
C648        C649   1.405       .  A
C648        H653   1.084       .  S
C649        C650   1.412       .  A
C650       Br651   1.917       .  S
C655        C656   1.408       .  A
C655        C660   1.404       .  A
C655        H662   1.082       .  S
C656        C657   1.420       .  A
C657        C658   1.405       .  A
C657       Br664   1.917       .  S
C658        C659   1.401       .  A
C658        H663   1.084       .  S
C659        C660   1.412       .  A
C660       Br661   1.918       .  S
C665        C666   1.408       .  A
C665        C670   1.402       .  A
C665        H672   1.083       .  S
C666        C667   1.423       .  A
C667        C668   1.405       .  A
C667       Br674   1.923       .  S
C668        C669   1.402       .  A
C668        H673   1.084       .  S
C669        C670   1.411       .  A
C670       Br671   1.918       .  S
C675        C676   1.406       .  A
C675        C680   1.396       .  A
C675        H682   1.084       .  S
C676        C677   1.411       .  A
C677        C678   1.397       .  A
C677       Br684   1.920       .  S
C678        C679   1.402       .  A
C678        H683   1.084       .  S
C679        C680   1.407       .  A
C680       Br681   1.920       .  S
C685        C686   1.406       .  A
C685        C690   1.406       .  A
C685        H692   1.083       .  S
C686        C687   1.420       .  A
C687        C688   1.405       .  A
C687       Br694   1.921       .  S
C688        C689   1.401       .  A
C688        H693   1.083       .  S
C689        C690   1.416       .  A
C690       Br691   1.919       .  S
C695        C696   1.404       .  A
C695        C700   1.397       .  A
C695        H702   1.084       .  S
C696        C697   1.409       .  A
C697        C698   1.394       .  A
C697       Br704   1.921       .  S
C698        C699   1.402       .  A
C698        H703   1.084       .  S
C699        C700   1.407       .  A
C700       Br701   1.919       .  S
