geometry optimzed in LAMMPS
_audit_creation_date              2020-11-30 
_audit_creation_method            'lammps2cif' 
_symmetry_space_group_name_H-M    'P1' 
_symmetry_Int_Tables_number       1 
_symmetry_cell_setting            triclinic 
loop_ 
_symmetry_equiv_pos_as_xyz 
  x,y,z 
_cell_length_a                    46.38717089 
_cell_length_b                    36.981913983414124 
_cell_length_c                    41.2982903669959 
_cell_angle_alpha                 90.17469996948657 
_cell_angle_beta                  90.42125113316426 
_cell_angle_gamma                 90.4044448608986 
loop_ 
_atom_site_label 
_atom_site_type_symbol 
_atom_site_fract_x 
_atom_site_fract_y 
_atom_site_fract_z 
_atom_site_charge 
C1          C  0.03398400  0.09142735  0.09191227     0.04300
C2          C  0.04469588  0.09549844  0.06007611    -0.11800
C3          C  0.03862791  0.06954493  0.03598277     0.01800
C4          C  0.02017048  0.04046668  0.04322895    -0.10400
C5          C  0.00839265  0.03564296  0.07425663     0.04300
C6          C  0.01607493  0.06089475  0.09887910    -0.09800
H7          H  0.05969279  0.11722885  0.05472021     0.09900
H8          H  0.01579953  0.02042219  0.02454129     0.07400
H9          H  0.00803741  0.05699762  0.12315157     0.07300
O10         O  0.96863468  0.42870685  0.00510271    -0.77300
C11         C  0.87998690  0.44221296  0.03100368     0.83700
O12         O  0.98950727  0.48757887  0.10233917    -0.78400
O13         O  0.89103416  0.44348051  0.11920325    -0.79900
O14         O  0.92836119  0.33322008  0.06600593    -0.79700
O15         O  0.98421847  0.37463884  0.02197114    -0.78300
Zn16       Zn  0.94561863  0.45279099  0.04105605     1.55700
O17         O  0.90364215  0.35759131  0.10573465    -0.79700
Cd18       Cd  0.96283321  0.37153254  0.06752196     1.59700
Cd19       Cd  0.96237020  0.44459686  0.11730094     1.59600
O20         O  0.98757838  0.35594864  0.10818391    -0.79700
O21         O  0.94704078  0.42063392  0.07732583    -1.90200
Cd22       Cd  0.90771240  0.40839601  0.08798993     1.59900
O23         O  0.98135982  0.40097132  0.14425196    -0.79700
O24         O  0.88137533  0.41470493  0.04928449    -0.78300
C25         C  0.98729519  0.50670801  0.07654393     0.84200
C26         C  0.98320033  0.39986273  0.00063213     0.83900
O27         O  0.90229783  0.46249572  0.02675705    -0.77300
C28         C  0.90776207  0.33150762  0.08648862     0.84700
O29         O  0.96974052  0.49792019  0.05356493    -0.77400
C30         C  0.98995784  0.36876988  0.13703397     0.84800
C31         C  0.90085190  0.46768421  0.13791040     0.85100
O32         O  0.92813559  0.47151323  0.14173074    -0.79800
C33         C  0.77825735  0.21503319  0.02032707     0.04300
C34         C  0.79626757  0.22249544  0.04725836    -0.11800
C35         C  0.82565931  0.23059790  0.04297487     0.01800
C36         C  0.84017854  0.23082182  0.52370149    -0.10400
C37         C  0.82189044  0.23302984  0.49710202     0.04300
C38         C  0.79215051  0.23450949  0.50151472    -0.09800
H39         H  0.78700806  0.22387364  0.07124457     0.09900
H40         H  0.86303525  0.23359379  0.51910345     0.07400
H41         H  0.77824288  0.23887019  0.48072009     0.07300
C42         C  0.00108266  0.34419679  0.16335643     0.04300
C43         C  0.01889316  0.31386622  0.15620619    -0.11800
C44         C  0.02690147  0.28898994  0.18075091     0.01800
C45         C  0.01569188  0.29400055  0.21196628    -0.10400
C46         C  0.99721976  0.32268487  0.21945173     0.04300
C47         C  0.99071981  0.34831727  0.19537325    -0.09800
H48         H  0.02661275  0.30981777  0.13181598     0.09900
H49         H  0.02040646  0.27423580  0.23061920     0.07400
H50         H  0.97570925  0.36975971  0.20090109     0.07300
O51         O  0.06595639  0.17995012  0.24872108    -0.77300
C52         C  0.15211131  0.19671254  0.22351795     0.83700
O53         O  0.04519797  0.23805097  0.14935609    -0.78400
O54         O  0.14472981  0.19406091  0.13602440    -0.79900
O55         O  0.10804030  0.08326135  0.18983811    -0.79700
O56         O  0.05214853  0.12415039  0.23377336    -0.78300
Zn57       Zn  0.08742266  0.20393432  0.21179952     1.55700
O58         O  0.13438730  0.10805621  0.15152984    -0.79700
Cd59       Cd  0.07286087  0.12066194  0.18750539     1.59700
Cd60       Cd  0.07245243  0.19383032  0.13597725     1.59600
O61         O  0.04794030  0.10388662  0.14695695    -0.79700
O62         O  0.08740539  0.17039673  0.17633840    -1.90200
Cd63       Cd  0.12746453  0.15924660  0.16758813     1.59900
O64         O  0.05310612  0.14891399  0.11060503    -0.79700
O65         O  0.15133708  0.16693559  0.20819267    -0.78300
C66         C  0.04631902  0.25697869  0.17552886     0.84200
C67         C  0.05271235  0.15024123  0.25448831     0.83900
O68         O  0.12968532  0.21670816  0.22533431    -0.77300
C69         C  0.12976953  0.08215790  0.17080737     0.84700
O70         O  0.06290866  0.24790684  0.19908982    -0.77400
C71         C  0.04497992  0.11649036  0.11813103     0.84800
C72         C  0.13507103  0.21608120  0.11537542     0.85100
O73         O  0.10776137  0.21861844  0.11069687    -0.79800
C74         C  0.25784186  0.96343445  0.24049831     0.04300
C75         C  0.24204749  0.97421937  0.21255223    -0.11800
C76         C  0.21187820  0.98006205  0.21422456     0.01800
C77         C  0.19819505  0.97303343  0.24356090    -0.10400
C78         C  0.21345484  0.96296608  0.27113433     0.04300
C79         C  0.24323982  0.95833120  0.26981440    -0.09800
H80         H  0.25339099  0.97884759  0.19012000     0.09900
H81         H  0.17563674  0.97980071  0.24635152     0.07400
H82         H  0.25520722  0.95272977  0.29186574     0.07300
C83         C  0.03227779  0.12705617  0.34202746     0.04300
C84         C  0.01384052  0.15683368  0.34862591    -0.11800
C85         C  0.00556936  0.18108517  0.32367561     0.01800
C86         C  0.01736181  0.17631654  0.29267135    -0.10400
C87         C  0.03659014  0.14825481  0.28567369     0.04300
C88         C  0.04322870  0.12305568  0.31015685    -0.09800
H89         H  0.00577401  0.16084736  0.37285869     0.09900
H90         H  0.01250341  0.19579768  0.27384747     0.07400
H91         H  0.05866319  0.10194741  0.30505321     0.07300
O92         O  0.90311522  0.25666573  0.27661697    -0.77300
C93         C  0.98125091  0.32078342  0.25056727     0.83700
O94         O  0.98651332  0.23102786  0.35520394    -0.78400
O95         O  0.98606708  0.36622671  0.35785012    -0.79900
O96         O  0.90130705  0.36294623  0.35386859    -0.79700
O97         O  0.88256693  0.30517646  0.29773429    -0.78300
Zn98       Zn  0.94562836  0.26706173  0.29219241     1.55700
O99         O  0.92590947  0.38749299  0.31422022    -0.79700
Cd100      Cd  0.90696304  0.31187585  0.33733725     1.59700
Cd101      Cd  0.96151812  0.27700375  0.36808082     1.59600
O102        O  0.88915934  0.27996532  0.37029309    -0.79700
O103        O  0.94645513  0.30030464  0.32789715    -1.90200
Cd104      Cd  0.96110570  0.35021557  0.31712804     1.59900
O105        O  0.92712774  0.26080919  0.39846699    -0.79700
O106        O  0.98196389  0.34685881  0.27124132    -0.78300
C107        C  0.98590594  0.21282305  0.32866455     0.84200
C108        C  0.88133866  0.27766802  0.27944121     0.83900
O109        O  0.96777621  0.29122964  0.25617737    -0.77300
C110        C  0.90461822  0.38827943  0.33381102     0.84700
O111        O  0.96989116  0.22253547  0.30475664    -0.77400
C112        C  0.89990196  0.26452909  0.39469917     0.84800
C113        C  0.99051580  0.35189506  0.38576794     0.85100
O114        O  0.98325217  0.31915107  0.39225973    -0.79800
C115        C  0.77556498  0.50682521  0.26316889     0.04300
C116        C  0.79029569  0.49216082  0.29034940    -0.11800
C117        C  0.82019191  0.48485092  0.28884974     0.01800
C118        C  0.83469524  0.49208470  0.25998800    -0.10400
C119        C  0.82094144  0.50734614  0.23324532     0.04300
C120        C  0.79135385  0.51488930  0.23501451    -0.09800
H121        H  0.77849015  0.48638063  0.31225699     0.09900
H122        H  0.85706470  0.48414309  0.25774379     0.07400
H123        H  0.78039387  0.52610581  0.21417760     0.07300
C124        C  0.00216646  0.37483543  0.41265135     0.04300
C125        C  0.99127762  0.36982378  0.44429129    -0.11800
C126        C  0.99868726  0.39389891  0.46938921     0.01800
C127        C  0.01854099  0.42180081  0.46323089    -0.10400
C128        C  0.02998225  0.42733410  0.43216170     0.04300
C129        C  0.02112810  0.40418099  0.40668906    -0.09800
H130        H  0.97525816  0.34899819  0.44877358     0.09900
H131        H  0.02389232  0.44070091  0.48254966     0.07400
H132        H  0.02901112  0.40887561  0.38243014     0.07300
O133        O  0.13332655  0.50310322  0.47939031    -0.77300
C134        C  0.05357580  0.06761133  0.50498474     0.83700
O135        O  0.04774487  0.47774677  0.40104148    -0.78400
O136        O  0.04740838  0.11551245  0.39713328    -0.79900
O137        O  0.13126563  0.10681042  0.39840097    -0.79700
O138        O  0.15029563  0.05646428  0.45757982    -0.78300
Zn139      Zn  0.08906822  0.01491470  0.46263938     1.55700
O140        O  0.10874129  0.13121077  0.43984236    -0.79700
Cd141      Cd  0.12551742  0.05739322  0.41767135     1.59700
Cd142      Cd  0.07007540  0.02588416  0.38638112     1.59600
O143        O  0.14174465  0.01996735  0.38872536    -0.79700
O144        O  0.08594064  0.04759330  0.42699869    -1.90200
Cd145      Cd  0.07193997  0.09706012  0.43766128     1.59900
O146        O  0.10398655  0.00635857  0.35733859    -0.79700
O147        O  0.05234169  0.09366125  0.48441128    -0.78300
C148        C  0.04955523  0.45895659  0.42712430     0.84200
C149        C  0.15491841  0.52465397  0.47589360     0.83900
O150        O  0.06694436  0.03829184  0.49889343    -0.77300
C151        C  0.12939347  0.13158160  0.41940986     0.84700
O152        O  0.06671369  0.46774342  0.45041606    -0.77400
C153        C  0.13100544  0.00556679  0.36360879     0.84800
C154        C  0.04311806  0.10245231  0.36855296     0.85100
O155        O  0.04976097  0.06958357  0.36141818    -0.79800
C156        C  0.26226623  0.24717522  0.48838350     0.04300
C157        C  0.24436950  0.26739972  0.01617735    -0.11800
C158        C  0.21481274  0.25882010  0.01918784     0.01800
C159        C  0.20038491  0.24288461  0.99301542    -0.10400
C160        C  0.21617357  0.22539719  0.46682531     0.04300
C161        C  0.24575321  0.23235335  0.46276787    -0.09800
H162        H  0.25602753  0.27948335  0.03629986     0.09900
H163        H  0.17822689  0.23402091  0.99608061     0.07400
H164        H  0.25595117  0.22643937  0.43984300     0.07300
C165        C  0.50323257  0.34994344  0.08839677     0.04300
C166        C  0.49425132  0.35461778  0.05589605    -0.11800
C167        C  0.50185642  0.32950861  0.03179627     0.01800
C168        C  0.52015856  0.30082655  0.03967759    -0.10400
C169        C  0.52985507  0.29538334  0.07153727     0.04300
C170        C  0.52071016  0.31959893  0.09606269    -0.09800
H171        H  0.47939489  0.37606162  0.04980925     0.09900
H172        H  0.52553580  0.28123600  0.02104951     0.07400
H173        H  0.52714389  0.31482996  0.12091005     0.07300
O174        O  0.63556968  0.21104422  0.04077833    -0.77300
C175        C  0.55089309  0.16105446  0.00265215     0.83700
O176        O  0.54103958  0.24203133  0.10224068    -0.78400
O177        O  0.54471473  0.10850041  0.10974826    -0.79900
O178        O  0.62620204  0.10317296  0.10054632    -0.79700
O179        O  0.65348525  0.18041247  0.08264350    -0.78300
Zn180      Zn  0.59051787  0.20711713  0.04804941     1.55700
O181        O  0.60110042  0.09514123  0.05548214    -0.79700
Cd182      Cd  0.61898018  0.15707359  0.10450243     1.59700
Cd183      Cd  0.56555130  0.19861949  0.11935149     1.59600
O184        O  0.61934855  0.17071504  0.15196683    -0.79700
O185        O  0.58382021  0.17417310  0.08250182    -1.90200
Cd186      Cd  0.56629847  0.12826315  0.06810037     1.59900
O187        O  0.59996516  0.22321164  0.14420382    -0.79700
O188        O  0.54424856  0.13755902  0.02419697    -0.78300
C189        C  0.54751486  0.26252132  0.07833638     0.84200
C190        C  0.65719231  0.19839553  0.05682387     0.83900
O191        O  0.56937232  0.18629253  0.00822153    -0.77300
C192        C  0.62293947  0.08804055  0.07324766     0.84700
O193        O  0.56779136  0.25424406  0.05854575    -0.77400
C194        C  0.62046952  0.20454075  0.15576049     0.84800
C195        C  0.54080407  0.12179041  0.13826489     0.85100
O196        O  0.54676715  0.15503940  0.14521835    -0.79800
C197        C  0.75825488  0.96962272  0.00725860     0.04300
C198        C  0.74477653  0.99828526  0.02469933    -0.11800
C199        C  0.71468856  0.00260831  0.02398210     0.01800
C200        C  0.70332803  0.97990443  0.50277377    -0.10400
C201        C  0.71677073  0.95922388  0.47935330     0.04300
C202        C  0.74706455  0.95495433  0.48137722    -0.09800
H203        H  0.75740771  0.01749714  0.03873677     0.09900
H204        H  0.68000787  0.98225549  0.50238466     0.07400
H205        H  0.75661479  0.93490207  0.46589840     0.07300
C206        C  0.53092431  0.09718819  0.16487666     0.04300
C207        C  0.54205273  0.10214545  0.19669506    -0.11800
C208        C  0.53592347  0.07707360  0.22135918     0.01800
C209        C  0.51703329  0.04804897  0.21448842    -0.10400
C210        C  0.50540708  0.04240554  0.18329988     0.04300
C211        C  0.51307338  0.06666963  0.15834438    -0.09800
H212        H  0.55725263  0.12387526  0.20161560     0.09900
H213        H  0.51251459  0.02847764  0.23334205     0.07400
H214        H  0.50490372  0.06205286  0.13401915     0.07300
O215        O  0.40171787  0.46445036  0.22140590    -0.77300
C216        C  0.48101597  0.40523761  0.24956451     0.83700
O217        O  0.49153724  0.49133874  0.15217995    -0.78400
O218        O  0.48660553  0.36012534  0.14248976    -0.79900
O219        O  0.40266201  0.36177494  0.13963491    -0.79700
O220        O  0.38051987  0.41919393  0.19434850    -0.78300
Zn221      Zn  0.44447363  0.45705604  0.20768564     1.55700
O222        O  0.42467682  0.33859710  0.18219326    -0.79700
Cd223      Cd  0.40770972  0.41301589  0.15664942     1.59700
Cd224      Cd  0.46422516  0.44985469  0.13421426     1.59600
O225        O  0.39277656  0.44909316  0.12464743    -0.79700
O226        O  0.44653837  0.42471204  0.17150091    -1.90200
Cd227      Cd  0.46084631  0.37529666  0.18226386     1.59900
O228        O  0.43136700  0.48055523  0.11095615    -0.79700
O229        O  0.48161944  0.37906404  0.22893158    -0.78300
C230        C  0.48712730  0.51141620  0.17704926     0.84200
C231        C  0.37959614  0.44449824  0.21518964     0.83900
O232        O  0.46701226  0.43415604  0.24395597    -0.77300
C233        C  0.40450067  0.33712274  0.16072168     0.84700
O234        O  0.46770560  0.50338205  0.19783994    -0.77400
C235        C  0.40393851  0.47651768  0.11136318     0.84800
C236        C  0.49092871  0.37387006  0.11435094     0.85100
O237        O  0.48340780  0.40655687  0.10732892    -0.79800
C238        C  0.27329137  0.23023923  0.23763119     0.04300
C239        C  0.28784214  0.24036785  0.20875443    -0.11800
C240        C  0.31782904  0.24805386  0.20947496     0.01800
C241        C  0.33241015  0.24560526  0.23902777    -0.10400
C242        C  0.31880377  0.23457777  0.26718300     0.04300
C243        C  0.28917706  0.22738610  0.26671178    -0.09800
H244        H  0.27587582  0.24241500  0.18621076     0.09900
H245        H  0.35492997  0.25369447  0.24055398     0.07400
H246        H  0.27840844  0.22044272  0.28904933     0.07300
C247        C  0.53735411  0.13571110  0.41541078     0.04300
C248        C  0.51871658  0.16509123  0.40771862    -0.11800
C249        C  0.51022689  0.19039517  0.43175220     0.01800
C250        C  0.52178144  0.18709131  0.46308134    -0.10400
C251        C  0.54112534  0.15958999  0.47119933     0.04300
C252        C  0.54824578  0.13335124  0.44759616    -0.09800
H253        H  0.51064422  0.16807018  0.38321968     0.09900
H254        H  0.51655046  0.20722688  0.48127262     0.07400
H255        H  0.56367871  0.11257243  0.45371399     0.07300
O256        O  0.46778717  0.30057088  0.49665305    -0.77300
C257        C  0.38094937  0.28061612  0.45386122     0.83700
O258        O  0.49338089  0.24050816  0.39932303    -0.78400
O259        O  0.40942673  0.31185739  0.35648604    -0.79900
O260        O  0.43584394  0.39050652  0.44755731    -0.79700
O261        O  0.49170877  0.34930965  0.47874241    -0.78300
Zn262      Zn  0.44775323  0.27642867  0.45778263     1.55700
O263        O  0.40633634  0.37883130  0.40662337    -0.79700
Cd264      Cd  0.46924074  0.35546091  0.43481211     1.59700
Cd265      Cd  0.46707827  0.28375756  0.38402143     1.59600
O266        O  0.49007307  0.37337429  0.39240104    -0.79700
O267        O  0.45127888  0.30891833  0.42222875    -1.90200
Cd268      Cd  0.41437175  0.32519829  0.40362822     1.59900
O269        O  0.48540834  0.32692490  0.35708214    -0.79700
O270        O  0.38243420  0.30086065  0.42911435    -0.78300
C271        C  0.49065718  0.22185353  0.42527713     0.84200
C272        C  0.48529651  0.32704425  0.50133699     0.83900
O273        O  0.40385464  0.26810973  0.46739950    -0.77300
C274        C  0.41263313  0.39660505  0.43186893     0.84700
O275        O  0.47261563  0.23101296  0.44734608    -0.77400
C276        C  0.49260019  0.35987454  0.36378241     0.84800
C277        C  0.40968193  0.27838097  0.35068091     0.85100
O278        O  0.43105754  0.25991732  0.36063609    -0.79800
C279        C  0.27751324  0.51083961  0.50187200     0.04300
C280        C  0.29421411  0.53656966  0.02804713    -0.11800
C281        C  0.32443395  0.53348852  0.03043993     0.01800
C282        C  0.33875007  0.51375297  0.00674952    -0.10400
C283        C  0.32272183  0.48479523  0.48295706     0.04300
C284        C  0.29257055  0.48755828  0.48061480    -0.09800
H285        H  0.28279783  0.55194315  0.04612075     0.09900
H286        H  0.36184692  0.50975115  0.00873334     0.07400
H287        H  0.28100504  0.47123286  0.46294891     0.07300
C288        C  0.50252328  0.38414249  0.33702633     0.04300
C289        C  0.52011109  0.41481767  0.34377409    -0.11800
C290        C  0.52758422  0.43938458  0.31908985     0.01800
C291        C  0.51616358  0.43375213  0.28778937    -0.10400
C292        C  0.49768205  0.40436718  0.28060919     0.04300
C293        C  0.49165168  0.37906497  0.30512280    -0.09800
H294        H  0.52820269  0.41938539  0.36813086     0.09900
H295        H  0.52064571  0.45346594  0.26904469     0.07400
H296        H  0.47670494  0.35709983  0.30002130     0.07300
O297        O  0.56740613  0.04708952  0.25702096    -0.77300
C298        C  0.65447612  0.53555205  0.28361460     0.83700
O299        O  0.54370213  0.49097717  0.35079338    -0.78400
O300        O  0.64519246  0.02955421  0.36949520    -0.79900
O301        O  0.61050141  0.14161371  0.31701369    -0.79700
O302        O  0.55222145  0.10157727  0.27324889    -0.78300
Zn303      Zn  0.58961323  0.02354603  0.29334365     1.55700
O304        O  0.63491251  0.11721627  0.35739791    -0.79700
Cd305      Cd  0.57427387  0.10559791  0.31922930     1.59700
Cd306      Cd  0.57336194  0.03253798  0.36920935     1.59600
O307        O  0.55078416  0.12272709  0.36039740    -0.79700
O308        O  0.58881627  0.05610074  0.32948700    -1.90200
Cd309      Cd  0.62880829  0.06666338  0.33944027     1.59900
O310        O  0.55583771  0.07763438  0.39657067    -0.79700
O311        O  0.65334518  0.06137208  0.29928682    -0.78300
C312        C  0.54671168  0.47153716  0.32518123     0.84200
C313        C  0.55298505  0.07587461  0.25212582     0.83900
O314        O  0.63186189  0.51592138  0.27892210    -0.77300
C315        C  0.63182582  0.14238574  0.33700441     0.84700
O316        O  0.56530945  0.47972436  0.30353175    -0.77400
C317        C  0.54815791  0.11027633  0.38930840     0.84800
C318        C  0.63505257  0.00571247  0.38818841     0.85100
O319        O  0.60774702  0.00371365  0.39277616    -0.79800
C320        C  0.76020032  0.25421686  0.25857134     0.04300
C321        C  0.74423531  0.26033233  0.23007607    -0.11800
C322        C  0.71436757  0.25484598  0.22983292     0.01800
C323        C  0.70053147  0.24382102  0.25797335    -0.10400
C324        C  0.71577402  0.23676029  0.28645518     0.04300
C325        C  0.74591525  0.24242521  0.28686252    -0.09800
H326        H  0.75515322  0.26765913  0.20791012     0.09900
H327        H  0.67770270  0.23725618  0.25668148     0.07400
H328        H  0.75826408  0.23688076  0.30861445     0.07300
C329        C  0.65552928  0.16966179  0.33394529    -0.04100
C330        C  0.68452104  0.15791870  0.33177526    -0.01300
C331        C  0.70610639  0.18148895  0.32012768     0.03700
C332        C  0.69926616  0.21758434  0.31238094    -0.04100
C333        C  0.67186714  0.23095458  0.32141319    -0.01200
C334        C  0.64975452  0.20684962  0.33104783     0.03700
C335        C  0.69218714  0.12102225  0.33972444     0.38400
C336        C  0.66605574  0.26930585  0.31870635     0.38400
C337        C  0.62119633  0.22022662  0.33814117     0.36800
C338        C  0.73459842  0.16741277  0.31375867     0.36800
N339        N  0.59843396  0.23088370  0.34407538    -0.38000
N340        N  0.75723031  0.15564226  0.30908348    -0.38000
N341        N  0.66152643  0.29994742  0.31663430    -0.37500
N342        N  0.69869660  0.09183892  0.34641885    -0.37500
C343        C  0.39016562  0.42058888  0.44503513    -0.04100
C344        C  0.37790241  0.41205933  0.47532127    -0.01300
C345        C  0.35271059  0.42965535  0.48550283     0.03700
C346        C  0.34026163  0.45713954  0.46627101    -0.04100
C347        C  0.35207330  0.46503168  0.43574129    -0.01200
C348        C  0.37687044  0.44668721  0.42505161     0.03700
C349        C  0.39025661  0.38376689  0.49533446     0.38400
C350        C  0.33926216  0.49302659  0.41594659     0.38400
C351        C  0.38946290  0.45569355  0.39404743     0.36800
C352        C  0.33983839  0.42841505  0.01625860     0.36800
N353        N  0.39966637  0.46297616  0.36940417    -0.38000
N354        N  0.32948915  0.42129050  0.04086525    -0.38000
N355        N  0.32890887  0.51530908  0.40016089    -0.37500
N356        N  0.39692044  0.36505020  0.00952025    -0.37500
C357        C  0.38394926  0.26154425  0.33432638    -0.04100
C358        C  0.35641498  0.27839969  0.33659440    -0.01300
C359        C  0.33282040  0.26533783  0.31830823     0.03700
C360        C  0.33647602  0.23598390  0.29716682    -0.04100
C361        C  0.36230268  0.21602377  0.29837049    -0.01200
C362        C  0.38613112  0.22888692  0.31655466     0.03700
C363        C  0.35207047  0.31036973  0.35636745     0.38400
C364        C  0.36481445  0.18349987  0.27888409     0.38400
C365        C  0.41324880  0.20974574  0.31478847     0.36800
C366        C  0.30533311  0.28393801  0.31928964     0.36800
N367        N  0.43485327  0.19439396  0.31323410    -0.38000
N368        N  0.28338952  0.29860326  0.32018701    -0.38000
N369        N  0.36674218  0.15749928  0.26341701    -0.37500
N370        N  0.34829198  0.33634478  0.37136947    -0.37500
C371        C  0.38343077  0.50394975  0.09742967    -0.04100
C372        C  0.35386596  0.50356196  0.10702237    -0.01300
C373        C  0.33300152  0.52224667  0.08884491     0.03700
C374        C  0.34131551  0.54094877  0.06081722    -0.04100
C375        C  0.37077803  0.55054509  0.05785960    -0.01200
C376        C  0.39203303  0.53056069  0.07474562     0.03700
C377        C  0.34392164  0.48280546  0.13457541     0.38400
C378        C  0.37897746  0.57720261  0.03389625     0.38400
C379        C  0.42216128  0.53605070  0.06704761     0.36800
C380        C  0.30279134  0.51914762  0.09745480     0.36800
N381        N  0.44618166  0.54055773  0.06070776    -0.38000
N382        N  0.27879563  0.51648584  0.10463321    -0.38000
N383        N  0.38543186  0.59858403  0.01482068    -0.37500
N384        N  0.33505111  0.46603889  0.15592848    -0.37500
C385        C  0.38079641  0.30935625  0.16230073    -0.04100
C386        C  0.35149081  0.31988689  0.15859640    -0.01300
C387        C  0.32895427  0.29653262  0.16853270     0.03700
C388        C  0.33543963  0.26250750  0.18187239    -0.04100
C389        C  0.36382234  0.24915399  0.17785141    -0.01200
C390        C  0.38661843  0.27288018  0.16949374     0.03700
C391        C  0.34418808  0.35549985  0.14651536     0.38400
C392        C  0.36983993  0.21165584  0.18532471     0.38400
C393        C  0.41600811  0.25989331  0.16880525     0.36800
C394        C  0.29934051  0.30830753  0.16597781     0.36800
N395        N  0.43946206  0.24946396  0.16820033    -0.38000
N396        N  0.27589288  0.31818008  0.16277914    -0.38000
N397        N  0.37467392  0.18172096  0.19119001    -0.37500
N398        N  0.33810022  0.38367940  0.13658181    -0.37500
C399        C  0.69960408  0.95514852  0.44859377    -0.04100
C400        C  0.67087031  0.94172032  0.44986666    -0.01300
C401        C  0.64913091  0.95650223  0.42948319     0.03700
C402        C  0.65670787  0.98158762  0.40507529    -0.04100
C403        C  0.68660744  0.98580943  0.39831072    -0.00400
C404        C  0.70741229  0.97644847  0.42165309     0.03700
C405        C  0.65597888  0.41226073  0.47498493     0.38400
C406        C  0.69669768  0.00042517  0.36781628     0.38400
C407        C  0.73503694  0.99505308  0.42046316     0.36800
C408        C  0.61366943  0.44659191  0.43500635     0.36800
N409        N  0.75618489  0.01176028  0.41925756    -0.38000
N410        N  0.58949712  0.44017276  0.43897622    -0.38000
N411        N  0.70548969  0.01156745  0.34366699    -0.37500
N412        N  0.64891960  0.39212567  0.49485389    -0.37500
C413        C  0.69720871  0.25121003  0.19973241    -0.04100
C414        C  0.69873909  0.21781065  0.18367978    -0.01300
C415        C  0.67357610  0.20194216  0.17067917     0.03700
C416        C  0.64719154  0.22164939  0.16984449    -0.04100
C417        C  0.64752576  0.25817218  0.18070512    -0.01200
C418        C  0.67236488  0.27251803  0.19613778     0.03700
C419        C  0.72580753  0.19825611  0.18326901     0.38400
C420        C  0.62211063  0.28060787  0.17804016     0.38400
C421        C  0.67196028  0.30831226  0.21059862     0.36800
C422        C  0.67517581  0.16443685  0.16034295     0.36800
N423        N  0.67176451  0.33684071  0.22218752    -0.38000
N424        N  0.67655734  0.13424479  0.15310343    -0.38000
N425        N  0.60197395  0.29877153  0.17585794    -0.37500
N426        N  0.74741691  0.18283274  0.18256043    -0.37500
C427        C  0.64710728  0.06588863  0.06097864    -0.04100
C428        C  0.66114097  0.07633406  0.03211584    -0.01300
C429        C  0.68712292  0.05965843  0.02302856     0.03700
C430        C  0.69846423  0.03093232  0.04152414    -0.04100
C431        C  0.68522280  0.02164696  0.07104451    -0.01200
C432        C  0.65973172  0.03913982  0.08082657     0.03700
C433        C  0.64938181  0.10497476  0.01211578     0.38400
C434        C  0.69707932  0.99270775  0.09051449     0.38400
C435        C  0.64569027  0.02840930  0.11059749     0.36800
C436        C  0.69484000  0.06078881  0.48119742     0.36800
N437        N  0.63433750  0.01983929  0.13425505    -0.38000
N438        N  0.70195405  0.06439700  0.45460084    -0.38000
N439        N  0.70648329  0.96968162  0.10619117    -0.37500
N440        N  0.62820807  0.10854776  0.48471210    -0.37500
C441        C  0.29312411  0.25632095  0.48315835    -0.04100
C442        C  0.31529958  0.23148835  0.49013897    -0.01300
C443        C  0.34422476  0.23943546  0.48162635     0.03700
C444        C  0.35123310  0.27276551  0.46661144    -0.04100
C445        C  0.32881445  0.29858822  0.46210721    -0.01200
C446        C  0.30011294  0.29017111  0.47010370     0.03700
C447        C  0.30841621  0.19791577  0.50641845     0.38400
C448        C  0.33450683  0.33421835  0.44902629     0.38400
C449        C  0.27627647  0.32977722  0.96616416     0.36800
C450        C  0.36632385  0.21259142  0.48724178     0.36800
N451        N  0.25878010  0.35160430  0.96267479    -0.38000
N452        N  0.38389891  0.19108457  0.49175793    -0.38000
N453        N  0.33778834  0.36269581  0.43813184    -0.37500
N454        N  0.30331610  0.17127279  0.51988411    -0.37500
C455        C  0.19769273  0.20623249  0.44236870    -0.04100
C456        C  0.20453750  0.17070875  0.43272319    -0.01300
C457        C  0.18237303  0.14674230  0.42277495     0.03700
C458        C  0.15323519  0.15840481  0.42233978    -0.04100
C459        C  0.14721220  0.19525316  0.42720059    -0.01200
C460        C  0.16959430  0.21934600  0.43602628     0.03700
C461        C  0.23401461  0.15797741  0.43476755     0.38400
C462        C  0.11783981  0.20809582  0.42415858     0.38400
C463        C  0.16353854  0.25751315  0.43982010     0.36800
C464        C  0.18966707  0.10934397  0.41609993     0.36800
N465        N  0.15565942  0.29541710  0.93602012    -0.38000
N466        N  0.19612471  0.07969141  0.41104699    -0.38000
N467        N  0.09431356  0.21803953  0.42188318    -0.37500
N468        N  0.25755867  0.14786531  0.43586553    -0.37500
C469        C  0.24496532  0.51358031  0.50057076    -0.04100
C470        C  0.22705914  0.48220580  0.49964986    -0.01300
C471        C  0.19684480  0.48513875  0.49426499     0.03700
C472        C  0.18384142  0.51953517  0.49188847    -0.04100
C473        C  0.19926965  0.05608978  0.49811749    -0.01200
C474        C  0.23144959  0.54783316  0.50046602     0.03700
C475        C  0.23956026  0.44678598  0.50458608     0.38400
C476        C  0.18578677  0.09135676  0.50077664     0.38400
C477        C  0.24638067  0.08668206  0.50443871     0.36800
C478        C  0.17955471  0.45269772  0.48975452     0.36800
N479        N  0.25953643  0.11321443  0.50714217    -0.38000
N480        N  0.16585629  0.42669393  0.48616591    -0.38000
N481        N  0.17516920  0.11950339  0.50277075    -0.37500
N482        N  0.24952529  0.41854096  0.50866282    -0.37500
C483        C  0.74347928  0.51318897  0.26357076    -0.04100
C484        C  0.73216669  0.54803391  0.25762436    -0.01300
C485        C  0.70223103  0.55443026  0.26017754     0.03700
C486        C  0.68312284  0.52630553  0.26938738    -0.04100
C487        C  0.69389588  0.49073975  0.27160283    -0.01200
C488        C  0.72383168  0.48426651  0.26854360     0.03700
C489        C  0.75131320  0.57766475  0.24933592     0.38400
C490        C  0.67451257  0.46090855  0.27879116     0.38400
C491        C  0.73410585  0.44749185  0.26953101     0.36800
C492        C  0.69103171  0.59017433  0.25324403     0.36800
N493        N  0.74157160  0.41775876  0.26983125    -0.38000
N494        N  0.68218496  0.61863761  0.24744742    -0.38000
N495        N  0.65372523  0.93310175  0.27451940    -0.37500
N496        N  0.76662309  0.60105901  0.24212075    -0.37500
C497        C  0.88139885  0.41607988  0.33137910    -0.04100
C498        C  0.88785214  0.45330294  0.32930783    -0.01300
C499        C  0.86576356  0.47813791  0.32164585     0.03700
C500        C  0.83739627  0.46573546  0.31455084    -0.04100
C501        C  0.83004866  0.43009856  0.32335230    -0.01200
C502        C  0.85193670  0.40509061  0.33102765     0.03700
C503        C  0.91699718  0.46604981  0.33543041     0.38400
C504        C  0.80012578  0.41894902  0.32490107     0.38400
C505        C  0.84385832  0.36763320  0.33664807     0.36800
C506        C  0.87216685  0.51650092  0.32004014     0.36800
N507        N  0.83707358  0.33790597  0.34116781    -0.38000
N508        N  0.87718262  0.54717730  0.31922164    -0.38000
N509        N  0.77643081  0.40957431  0.32764973    -0.37500
N510        N  0.94020382  0.47630579  0.34064635    -0.37500
C511        C  0.85255154  0.27024269  0.26413226    -0.04100
C512        C  0.83389764  0.29988846  0.25833107    -0.01300
C513        C  0.80382331  0.29460425  0.25713941     0.03700
C514        C  0.79209194  0.25945240  0.25828001    -0.04100
C515        C  0.81087315  0.22957138  0.25809901    -0.01200
C516        C  0.84095074  0.23477920  0.26228213     0.03700
C517        C  0.84554917  0.33618238  0.25435576     0.38400
C518        C  0.79927911  0.19364850  0.25250763     0.38400
C519        C  0.85942030  0.20364610  0.26625163     0.36800
C520        C  0.78485783  0.32552051  0.25597172     0.36800
N521        N  0.87401144  0.17863398  0.26946532    -0.38000
N522        N  0.76963243  0.35010981  0.25516642    -0.38000
N523        N  0.79010529  0.16510527  0.24704980    -0.37500
N524        N  0.85480107  0.36509509  0.25117452    -0.37500
C525        C  0.28997556  0.95957693  0.24004317    -0.04100
C526        C  0.30283151  0.92581653  0.24660179    -0.01300
C527        C  0.33321758  0.42105794  0.23788419     0.03700
C528        C  0.35086149  0.45110451  0.22997855    -0.04100
C529        C  0.33807247  0.98542016  0.23054811    -0.01200
C530        C  0.30804170  0.98989657  0.23474606     0.03700
C531        C  0.28506077  0.89533601  0.25617174     0.38400
C532        C  0.35567002  0.01616345  0.22122785     0.38400
C533        C  0.29597323  0.02591679  0.23531206     0.36800
C534        C  0.34607917  0.38578865  0.24289513     0.36800
N535        N  0.28665902  0.05481924  0.23667913    -0.38000
N536        N  0.35627610  0.35767070  0.24694562    -0.38000
N537        N  0.36963762  0.04072757  0.21365076    -0.37500
N538        N  0.27149439  0.36907497  0.25541524    -0.37500
C539        C  0.19834017  0.96911637  0.30178864    -0.04100
C540        C  0.19742476  0.00519117  0.31265236    -0.01300
C541        C  0.17380867  0.01711209  0.33044905     0.03700
C542        C  0.15220541  0.99235165  0.34020276    -0.04100
C543        C  0.15419817  0.95554884  0.33155276    -0.01200
C544        C  0.17732720  0.94396418  0.31211385     0.03700
C545        C  0.21960432  0.03088607  0.30300798     0.38400
C546        C  0.13238142  0.93000217  0.34202142     0.38400
C547        C  0.17951111  0.90647253  0.30216021     0.36800
C548        C  0.17078535  0.05558041  0.33685126     0.36800
N549        N  0.17621632  0.37568199  0.28491514    -0.38000
N550        N  0.16828342  0.08627385  0.34143463    -0.38000
N551        N  0.11418617  0.41010189  0.34637949    -0.37500
N552        N  0.23722928  0.05140287  0.29540845    -0.37500
C553        C  0.15707875  0.23733031  0.09616272    -0.04100
C554        C  0.18722059  0.23139538  0.10123645    -0.01300
C555        C  0.20728459  0.24073769  0.07715007     0.03700
C556        C  0.19836867  0.26095643  0.05014291    -0.04100
C557        C  0.17013116  0.27531606  0.04987893    -0.01200
C558        C  0.14913190  0.26224353  0.07173093     0.03700
C559        C  0.19832294  0.21665976  0.13133784     0.38400
C560        C  0.16262414  0.30270289  0.02627125     0.38400
C561        C  0.11967915  0.27469300  0.06880620     0.36800
C562        C  0.23648786  0.22701202  0.07921368     0.36800
N563        N  0.09622014  0.28485054  0.06636651    -0.38000
N564        N  0.25969263  0.21583505  0.08089544    -0.38000
N565        N  0.15677076  0.32500591  0.00781250    -0.37500
N566        N  0.20766817  0.20573541  0.15541646    -0.37500
C567        C  0.15178448  0.05261881  0.17287237    -0.04100
C568        C  0.18168682  0.06128265  0.17208453    -0.01300
C569        C  0.20262834  0.03483270  0.17924933     0.03700
C570        C  0.19402320  0.99998150  0.18936494    -0.04100
C571        C  0.16466035  0.98979529  0.18443695    -0.01200
C572        C  0.14365790  0.01605061  0.17653331     0.03700
C573        C  0.19131924  0.09806038  0.16624766     0.38400
C574        C  0.15576445  0.95262429  0.18990047     0.38400
C575        C  0.11373740  0.00543966  0.17218400     0.36800
C576        C  0.23289779  0.04424582  0.17676506     0.36800
N577        N  0.08988704  0.99694714  0.16838886    -0.38000
N578        N  0.25686466  0.05222874  0.17354162    -0.38000
N579        N  0.14862464  0.92309143  0.19472571    -0.37500
N580        N  0.19934365  0.12725577  0.16165855    -0.37500
C581        C  0.24134236  0.22323475  0.23818690    -0.04100
C582        C  0.22159943  0.25076209  0.22983959    -0.01300
C583        C  0.19162977  0.24348958  0.22842848     0.03700
C584        C  0.18095839  0.20866085  0.23590338    -0.04100
C585        C  0.20030367  0.18256696  0.24821122    -0.01200
C586        C  0.23029639  0.18952634  0.24887943     0.03700
C587        C  0.23179645  0.28702294  0.22333796     0.38400
C588        C  0.18925591  0.14820042  0.25991585     0.38400
C589        C  0.24971237  0.16138435  0.25975596     0.36800
C590        C  0.17205347  0.27150767  0.21765665     0.36800
N591        N  0.26505827  0.13893935  0.26873448    -0.38000
N592        N  0.15650158  0.29396209  0.20915895    -0.38000
N593        N  0.18037413  0.12089493  0.26933274    -0.37500
N594        N  0.23899467  0.31644762  0.21836975    -0.37500
C595        C  0.74668200  0.20958537  0.02573624    -0.04100
C596        C  0.72681873  0.23773031  0.02006412    -0.01300
C597        C  0.69755887  0.23413917  0.02944244     0.03700
C598        C  0.68785565  0.20245268  0.04525888    -0.04100
C599        C  0.70826097  0.17438202  0.05112957    -0.01200
C600        C  0.73701355  0.17761193  0.04051793     0.03700
C601        C  0.73670116  0.27116323  0.00573989     0.38400
C602        C  0.70078460  0.14249436  0.06967095     0.38400
C603        C  0.75698188  0.14792663  0.04524866     0.36800
C604        C  0.67820257  0.26438721  0.02513404     0.36800
N605        N  0.75158218  0.16201276  0.47843456    -0.38000
N606        N  0.66296595  0.28877757  0.02188123    -0.38000
N607        N  0.69594705  0.11732259  0.08531501    -0.37500
N608        N  0.74415624  0.29812294  0.99436133    -0.37500
C609        C  0.83576827  0.23937918  0.46556092    -0.04100
C610        C  0.84058967  0.27532765  0.45590100    -0.01300
C611        C  0.86236504  0.28317728  0.43354220     0.03700
C612        C  0.87921494  0.25504203  0.42027559    -0.04100
C613        C  0.87301086  0.21883294  0.42815843    -0.01200
C614        C  0.85113208  0.21100408  0.45070923     0.03700
C615        C  0.82390598  0.30441846  0.47001640     0.38400
C616        C  0.88877154  0.18985177  0.41278988     0.38400
C617        C  0.84428864  0.17384424  0.45885134     0.36800
C618        C  0.86791579  0.32054967  0.42476830     0.36800
N619        N  0.83848725  0.14421485  0.46513981    -0.38000
N620        N  0.87231015  0.35027102  0.41760376    -0.38000
N621        N  0.90134664  0.16674091  0.40044752    -0.37500
N622        N  0.81051648  0.32762091  0.48106851    -0.37500
C623        C  0.83790389  0.51024698  0.20272166    -0.04100
C624        C  0.86604744  0.52544633  0.20355935    -0.01300
C625        C  0.88685251  0.51449179  0.18072690     0.03700
C626        C  0.87900224  0.48971463  0.15602194    -0.04100
C627        C  0.84898848  0.48357553  0.15033510    -0.01200
C628        C  0.82887526  0.49150056  0.17462169     0.03700
C629        C  0.87369433  0.55150859  0.22853281     0.38400
C630        C  0.83831092  0.46940895  0.11961347     0.38400
C631        C  0.79965258  0.47753600  0.17149364     0.36800
C632        C  0.91581994  0.52932677  0.18244469     0.36800
N633        N  0.77642160  0.46622707  0.16882395    -0.38000
N634        N  0.93880512  0.54167038  0.18362304    -0.38000
N635        N  0.82946646  0.45849683  0.09516734    -0.37500
N636        N  0.87976969  0.57265296  0.24817842    -0.37500
C637        C  0.84415181  0.24892561  0.06798937    -0.04100
C638        C  0.87351629  0.23902985  0.07072544    -0.01300
C639        C  0.89468789  0.26543121  0.07826687     0.03700
C640        C  0.88634253  0.30105407  0.08599334    -0.04100
C641        C  0.85653268  0.30820957  0.09060543    -0.01200
C642        C  0.83554227  0.28261339  0.08074372     0.03700
C643        C  0.88745957  0.18995099  0.56206042     0.38400
C644        C  0.84690511  0.34274643  0.10324315     0.38400
C645        C  0.80534066  0.29270733  0.08082869     0.36800
C646        C  0.92496602  0.25607205  0.07732361     0.36800
N647        N  0.78130745  0.30092656  0.08093451    -0.38000
N648        N  0.94912672  0.24855578  0.07647697    -0.38000
N649        N  0.83898456  0.37000572  0.11361970    -0.37500
N650        N  0.89264151  0.16197757  0.55099004    -0.37500
C651        C  0.85063636  0.45053164  0.01707357    -0.04100
C652        C  0.83978857  0.94789119  0.99061901    -0.01300
C653        C  0.81505721  0.96277569  0.47854389     0.03700
C654        C  0.79095829  0.96328913  0.01127489    -0.04100
C655        C  0.80470946  0.97122225  0.04156015    -0.01200
C656        C  0.83510090  0.97228300  0.04457068     0.03700
C657        C  0.85770967  0.43439585  0.46501332     0.38400
C658        C  0.78811631  0.97389755  0.07113835     0.38400
C659        C  0.84231289  0.38488383  0.00659047     0.36800
C660        C  0.80370799  0.95738657  0.44613127     0.36800
N661        N  0.85093335  0.35575968  0.00372810    -0.38000
N662        N  0.79588972  0.95209034  0.41984783    -0.38000
N663        N  0.77524426  0.97561229  0.09499175    -0.37500
N664        N  0.87280639  0.42422715  0.44481832    -0.37500
C665        C  0.03618165  0.08983682  0.59319960     0.04300
C666        C  0.04564130  0.09447451  0.56086228    -0.11800
C667        C  0.03839787  0.06914316  0.53662254     0.01800
C668        C  0.02020759  0.04010396  0.54434071    -0.10400
C669        C  0.00958993  0.03450999  0.57579697     0.04300
C670        C  0.01831036  0.05923024  0.60052805    -0.09800
H671        H  0.06055131  0.11615416  0.55508980     0.09900
H672        H  0.01516886  0.02057544  0.52542122     0.07400
H673        H  0.01113202  0.05490532  0.62508078     0.07300
O674        O  0.96732206  0.42374397  0.50486536    -0.77300
C675        C  0.88092336  0.44410675  0.52936370     0.83700
O676        O  0.98647132  0.48420013  0.60516038    -0.78400
O677        O  0.88861487  0.43178045  0.61332541    -0.79900
O678        O  0.93607001  0.32099826  0.57283294    -0.79700
O679        O  0.98446931  0.37001956  0.52136094    -0.78300
Zn680      Zn  0.94614292  0.44792293  0.54166604     1.55700
O681        O  0.89855184  0.34911583  0.59350809    -0.79700
Cd682      Cd  0.96553073  0.36547673  0.56816783     1.59700
Cd683      Cd  0.96053054  0.43776577  0.61738316     1.59600
O684        O  0.99360662  0.35427435  0.60717752    -0.79700
O685        O  0.94668864  0.41342397  0.57652030    -1.90200
Cd686      Cd  0.90604477  0.40067147  0.57963197     1.59900
O687        O  0.98199282  0.39647740  0.64388559    -0.79700
O688        O  0.88185086  0.41189455  0.53966618    -0.78300
C689        C  0.98705350  0.50158385  0.57824402     0.84200
C690        C  0.98224958  0.39526232  0.50008513     0.83900
O691        O  0.90363413  0.46408762  0.52999304    -0.77300
C692        C  0.91150295  0.32001983  0.58686934     0.84700
O693        O  0.97174227  0.49105557  0.55404004    -0.77400
C694        C  0.99366688  0.36611134  0.63641613     0.84800
C695        C  0.89698481  0.45022612  0.63739920     0.85100
O696        O  0.92388212  0.45510700  0.64349900    -0.79800
C697        C  0.78042977  0.23109580  0.53273040     0.04300
C698        C  0.79949797  0.22755289  0.55967319    -0.11800
C699        C  0.82984891  0.22866909  0.55547540     0.01800
C700        C  0.83714915  0.22805706  0.01196646    -0.10400
C701        C  0.82003608  0.21987560  0.98509537     0.04300
C702        C  0.79024679  0.21396591  0.98898830    -0.09800
H703        H  0.79049040  0.22444148  0.58356765     0.09900
H704        H  0.85946960  0.23577087  0.00803847     0.07400
H705        H  0.77655645  0.20937733  0.96801325     0.07300
C706        C  0.00542046  0.34231045  0.66287474     0.04300
C707        C  0.02314438  0.31197568  0.65574763    -0.11800
C708        C  0.03119782  0.28733307  0.68035199     0.01800
C709        C  0.02043613  0.29273844  0.71171492    -0.10400
C710        C  0.00225897  0.32163093  0.71931050     0.04300
C711        C  0.99543585  0.34687477  0.69504682    -0.09800
H712        H  0.03060160  0.30758433  0.63130026     0.09900
H713        H  0.02525684  0.27311073  0.73044743     0.07400
H714        H  0.98044322  0.36831755  0.70062348     0.07300
O715        O  0.07082992  0.17958492  0.74952038    -0.77300
C716        C  0.15574492  0.19913664  0.72384492     0.83700
O717        O  0.04965674  0.23654069  0.64891452    -0.78400
O718        O  0.14877367  0.19413121  0.63944599    -0.79900
O719        O  0.11205390  0.08201827  0.69052112    -0.79700
O720        O  0.05664560  0.12377091  0.73474021    -0.78300
Zn721      Zn  0.09153268  0.20350538  0.71205597     1.55700
O722        O  0.13981393  0.10839036  0.65432031    -0.79700
Cd723      Cd  0.07687664  0.11950861  0.68830730     1.59700
Cd724      Cd  0.07671103  0.19190734  0.63620174     1.59600
O725        O  0.05135435  0.10235819  0.64807917    -0.79700
O726        O  0.09127863  0.16924600  0.67710372    -1.90200
Cd727      Cd  0.13156044  0.15904864  0.67030112     1.59900
O728        O  0.05668463  0.14692124  0.61135305    -0.79700
O729        O  0.15430875  0.16775175  0.71145455    -0.78300
C730        C  0.05043610  0.25531616  0.67518034     0.84200
C731        C  0.05750235  0.14993454  0.75539026     0.83900
O732        O  0.13348535  0.21940101  0.72417745    -0.77300
C733        C  0.13436356  0.08162507  0.67231401     0.84700
O734        O  0.06663312  0.24618301  0.69896600    -0.77400
C735        C  0.04815245  0.11473285  0.61918435     0.84800
C736        C  0.13955196  0.21472766  0.61747234     0.85100
O737        O  0.11243247  0.21601471  0.61109134    -0.79800
C738        C  0.26049818  0.96401466  0.73939982     0.04300
C739        C  0.24501574  0.97221082  0.71055428    -0.11800
C740        C  0.21465562  0.97673688  0.71103092     0.01800
C741        C  0.20035219  0.96996010  0.74008812    -0.10400
C742        C  0.21529203  0.96335970  0.76872421     0.04300
C743        C  0.24532107  0.96041861  0.76855179    -0.09800
H744        H  0.25677995  0.97610890  0.68830106     0.09900
H745        H  0.17746994  0.97535179  0.74187925     0.07400
H746        H  0.25694134  0.95736601  0.79123911     0.07300
C747        C  0.03628528  0.12680731  0.84263565     0.04300
C748        C  0.01804173  0.15664197  0.84920302    -0.11800
C749        C  0.01040003  0.18115024  0.82439127     0.01800
C750        C  0.02240757  0.17648607  0.79348820    -0.10400
C751        C  0.04138990  0.14818592  0.78653459     0.04300
C752        C  0.04757944  0.12277672  0.81094083    -0.09800
H753        H  0.00969190  0.16055613  0.87332038     0.09900
H754        H  0.01784595  0.19613651  0.77471106     0.07400
H755        H  0.06289804  0.10149122  0.80595182     0.07300
O756        O  0.90943441  0.25503685  0.77684316    -0.77300
C757        C  0.98656246  0.31986196  0.75061403     0.83700
O758        O  0.99119365  0.23087476  0.85600512    -0.78400
O759        O  0.99122060  0.36562824  0.85874434    -0.79900
O760        O  0.90760453  0.35932940  0.85482880    -0.79700
O761        O  0.88995842  0.30618092  0.79334239    -0.78300
Zn762      Zn  0.95141546  0.26629856  0.79233836     1.55700
O763        O  0.93094562  0.38523258  0.81495516    -0.79700
Cd764      Cd  0.91232822  0.30967963  0.83527833     1.59700
Cd765      Cd  0.96574814  0.27648832  0.86904575     1.59600
O766        O  0.89323136  0.27519621  0.86544542    -0.79700
O767        O  0.95216550  0.29912413  0.82802129    -1.90200
Cd768      Cd  0.96673276  0.34903297  0.81759514     1.59900
O769        O  0.92988189  0.25811898  0.89675643    -0.79700
O770        O  0.98738882  0.34590776  0.77135851    -0.78300
C771        C  0.99085983  0.21276615  0.82936222     0.84200
C772        C  0.88811875  0.27688546  0.77741583     0.83900
O773        O  0.97321517  0.29027874  0.75630803    -0.77300
C774        C  0.90996645  0.38500729  0.83497576     0.84700
O775        O  0.97517729  0.22237105  0.80523197    -0.77400
C776        C  0.90281503  0.25976482  0.89050787     0.84800
C777        C  0.99442303  0.35227640  0.88729157     0.85100
O778        O  0.98645201  0.31976954  0.89419979    -0.79800
C779        C  0.77539793  0.49495385  0.76989681     0.04300
C780        C  0.79157199  0.48386491  0.79738280    -0.11800
C781        C  0.82101630  0.47505029  0.79412000     0.01800
C782        C  0.83357633  0.47721736  0.76361088    -0.10400
C783        C  0.81806191  0.48829974  0.73663648     0.04300
C784        C  0.78889617  0.49684542  0.73954073    -0.09800
H785        H  0.78133862  0.48200802  0.82081101     0.09900
H786        H  0.85570793  0.46864073  0.76040343     0.07400
H787        H  0.77667755  0.50456554  0.71824200     0.07300
C788        C  0.00544172  0.37634645  0.91410254     0.04300
C789        C  0.99395807  0.37234763  0.94566427    -0.11800
C790        C  0.00028643  0.39775102  0.97022682     0.01800
C791        C  0.01986578  0.42587846  0.96373560    -0.10400
C792        C  0.03203210  0.43055470  0.93290813     0.04300
C793        C  0.02414187  0.40609120  0.90787846    -0.09800
H794        H  0.97821209  0.35126894  0.95036554     0.09900
H795        H  0.02445458  0.44564340  0.98259393     0.07400
H796        H  0.03249345  0.41016544  0.88374010     0.07300
O797        O  0.13443638  0.50975810  0.98035024    -0.77300
C798        C  0.05492629  0.06821089  0.00507509     0.83700
O799        O  0.04899479  0.48167603  0.90175574    -0.78400
O800        O  0.05023366  0.11565924  0.89787655    -0.79900
O801        O  0.13337138  0.11095707  0.89939942    -0.79700
O802        O  0.15302095  0.05947870  0.95822433    -0.78300
Zn803      Zn  0.09195718  0.01626323  0.96361947     1.55700
O804        O  0.11032422  0.13506089  0.94057027    -0.79700
Cd805      Cd  0.12854092  0.06091233  0.91821142     1.59700
Cd806      Cd  0.07362552  0.02669402  0.88784973     1.59600
O807        O  0.14574681  0.02509282  0.88818346    -0.79700
O808        O  0.08928364  0.04925006  0.92804522    -1.90200
Cd809      Cd  0.07464106  0.09854278  0.93855320     1.59900
O810        O  0.10760984  0.00671097  0.85937559    -0.79700
O811        O  0.05398247  0.09428993  0.98452396    -0.78300
C812        C  0.05118240  0.46280609  0.92775423     0.84200
C813        C  0.15578183  0.53183042  0.97736248     0.83900
O814        O  0.06901201  0.03926769  0.99958057    -0.77300
C815        C  0.13074271  0.13620638  0.91983613     0.84700
O816        O  0.06818287  0.47225873  0.95103184    -0.77400
C817        C  0.13482307  0.00838466  0.86431328     0.84800
C818        C  0.04671408  0.10244924  0.86926774     0.85100
O819        O  0.05380335  0.06976219  0.86227381    -0.79800
C820        C  0.25897542  0.25957012  0.98712721     0.04300
C821        C  0.24875545  0.25710341  0.51743784    -0.11800
C822        C  0.21918056  0.25025352  0.52162614     0.01800
C823        C  0.20356681  0.23368956  0.49653322    -0.10400
C824        C  0.21402410  0.23607278  0.96364954     0.04300
C825        C  0.24349659  0.24463250  0.96068229    -0.09800
H826        H  0.26120412  0.27018329  0.53642305     0.09900
H827        H  0.18120110  0.22628276  0.50050185     0.07400
H828        H  0.25449560  0.23930472  0.93812460     0.07300
C829        C  0.50185153  0.35290101  0.58933294     0.04300
C830        C  0.49195813  0.35570622  0.55685200    -0.11800
C831        C  0.49963558  0.32962241  0.53346748     0.01800
C832        C  0.51835241  0.30182022  0.54213103    -0.10400
C833        C  0.52878606  0.29817926  0.57385969     0.04300
C834        C  0.51992896  0.32333879  0.59766647    -0.09800
H835        H  0.47680236  0.37663710  0.55028897     0.09900
H836        H  0.52388040  0.28166523  0.52403531     0.07400
H837        H  0.52724935  0.32009761  0.62241550     0.07300
O838        O  0.63517776  0.22661819  0.53925344    -0.77300
C839        C  0.55600237  0.16221394  0.50325588     0.83700
O840        O  0.54458331  0.24783129  0.60638322    -0.78400
O841        O  0.54916700  0.11419712  0.61142841    -0.79900
O842        O  0.64282963  0.12452477  0.58873297    -0.79700
O843        O  0.65646491  0.20865916  0.58497189    -0.78300
Zn844      Zn  0.59160458  0.21432585  0.54787822     1.55700
O845        O  0.60672059  0.09855182  0.56141799    -0.79700
Cd846      Cd  0.62672984  0.17238391  0.60174216     1.59700
Cd847      Cd  0.57025940  0.20430798  0.62198040     1.59600
O848        O  0.62541519  0.17520000  0.65043233    -0.79700
O849        O  0.58846597  0.18165807  0.58334955    -1.90200
Cd850      Cd  0.57235540  0.13356876  0.57074066     1.59900
O851        O  0.60464923  0.22760278  0.64860145    -0.79700
O852        O  0.55131301  0.13856217  0.52532013    -0.78300
C853        C  0.54794438  0.26680181  0.58071304     0.84200
C854        C  0.65768520  0.22348709  0.55732427     0.83900
O855        O  0.57199377  0.19007378  0.50852433    -0.77300
C856        C  0.63297053  0.09948345  0.57095275     0.84700
O857        O  0.56631447  0.25809771  0.55895881    -0.77400
C858        C  0.62575380  0.20827417  0.65785055     0.84800
C859        C  0.54472920  0.12719957  0.63989700     0.85100
O860        O  0.55099489  0.16026924  0.64721211    -0.79800
C861        C  0.76425003  0.97782296  0.50189955     0.04300
C862        C  0.74927304  0.00515610  0.51924959    -0.11800
C863        C  0.71901870  0.00479744  0.52093906     0.01800
C864        C  0.69809323  0.98159948  0.00330699    -0.10400
C865        C  0.71042547  0.95710774  0.98221191     0.04300
C866        C  0.74009390  0.94884639  0.98591109    -0.09800
H867        H  0.76078098  0.02713460  0.53095388     0.09900
H868        H  0.67526725  0.98768446  0.00116812     0.07400
H869        H  0.74820443  0.92704108  0.97180348     0.07300
C870        C  0.53398452  0.10232541  0.66601613     0.04300
C871        C  0.54427788  0.10702792  0.69821615    -0.11800
C872        C  0.53796612  0.08144316  0.72239243     0.01800
C873        C  0.51945037  0.05223740  0.71466570    -0.10400
C874        C  0.50843743  0.04678067  0.68313111     0.04300
C875        C  0.51645782  0.07159597  0.65866162    -0.09800
H876        H  0.55920042  0.12887466  0.70379424     0.09900
H877        H  0.51472837  0.03236720  0.73320190     0.07400
H878        H  0.50887359  0.06722088  0.63408643     0.07300
O879        O  0.40243635  0.47088198  0.72129416    -0.77300
C880        C  0.48178311  0.41221796  0.75088332     0.83700
O881        O  0.49264244  0.49552195  0.65282505    -0.78400
O882        O  0.48696351  0.36533638  0.64366939    -0.79900
O883        O  0.40457121  0.36753363  0.64087288    -0.79700
O884        O  0.38173496  0.42463389  0.69522678    -0.78300
Zn885      Zn  0.44523499  0.46296032  0.70837756     1.55700
O886        O  0.42616005  0.34534106  0.68416004    -0.79700
Cd887      Cd  0.40892436  0.41869760  0.65769532     1.59700
Cd888      Cd  0.46492123  0.45473083  0.63444129     1.59600
O889        O  0.39364205  0.45412335  0.62545046    -0.79700
O890        O  0.44757941  0.43067743  0.67233903    -1.90200
Cd891      Cd  0.46210544  0.38179079  0.68367384     1.59900
O892        O  0.43212698  0.48510931  0.61064477    -0.79700
O893        O  0.48301170  0.38617208  0.73017835    -0.78300
C894        C  0.48863137  0.51555297  0.67785256     0.84200
C895        C  0.38045887  0.45058561  0.71535578     0.83900
O896        O  0.46728485  0.44071696  0.74524800    -0.77300
C897        C  0.40651409  0.34313670  0.66215736     0.84700
O898        O  0.46898990  0.50833203  0.69855538    -0.77400
C899        C  0.40470842  0.48091884  0.61113216     0.84800
C900        C  0.49041125  0.37799501  0.61497523     0.85100
O901        O  0.48295722  0.41055257  0.60743545    -0.79800
C902        C  0.27732624  0.23169296  0.73408827     0.04300
C903        C  0.29226559  0.24145145  0.70545017    -0.11800
C904        C  0.32220961  0.24917577  0.70669589     0.01800
C905        C  0.33638552  0.24672291  0.73658933    -0.10400
C906        C  0.32224998  0.23607259  0.76452273     0.04300
C907        C  0.29270102  0.22893099  0.76344366    -0.09800
H908        H  0.28056865  0.24324995  0.68270946     0.09900
H909        H  0.35881212  0.25501887  0.73870503     0.07400
H910        H  0.28151630  0.22243832  0.78563260     0.07300
C911        C  0.53457851  0.13913641  0.91403308     0.04300
C912        C  0.51686022  0.16941253  0.90619784    -0.11800
C913        C  0.50773668  0.19404393  0.93060903     0.01800
C914        C  0.51801180  0.18913344  0.96238861    -0.10400
C915        C  0.53640277  0.16056970  0.97046244     0.04300
C916        C  0.54384416  0.13510903  0.94654739    -0.09800
H917        H  0.51000349  0.17356760  0.88138404     0.09900
H918        H  0.51261383  0.20875658  0.98095129     0.07400
H919        H  0.55858578  0.11361258  0.95282664     0.07300
O920        O  0.46850763  0.30292002  0.99530871    -0.77300
C921        C  0.37924085  0.28972719  0.95442452     0.83700
O922        O  0.49308888  0.24630825  0.89933742    -0.78400
O923        O  0.40817070  0.31746919  0.85702709    -0.79900
O924        O  0.43545108  0.39597550  0.94867637    -0.79700
O925        O  0.49233216  0.35225571  0.97842437    -0.78300
Zn926      Zn  0.44632396  0.28130971  0.95687987     1.55700
O927        O  0.40757963  0.38657451  0.90593302    -0.79700
Cd928      Cd  0.46892210  0.36087321  0.93548494     1.59700
Cd929      Cd  0.46722584  0.29017218  0.88417615     1.59600
O930        O  0.48990573  0.37967614  0.89351938    -0.79700
O931        O  0.45063056  0.31479249  0.92212305    -1.90200
Cd932      Cd  0.41393910  0.33231075  0.90370491     1.59900
O933        O  0.48583968  0.33357712  0.85780582    -0.79700
O934        O  0.38133757  0.31023445  0.92991233    -0.78300
C935        C  0.48887437  0.22633656  0.92424663     0.84200
C936        C  0.48669380  0.32861513  0.00014724     0.83900
O937        O  0.40187223  0.27560022  0.96738316    -0.77300
C938        C  0.41293307  0.40325097  0.93205914     0.84700
O939        O  0.46987278  0.23481128  0.94553255    -0.77400
C940        C  0.49280143  0.36650865  0.86484861     0.84800
C941        C  0.40955795  0.28409390  0.85084256     0.85100
O942        O  0.43154158  0.26653145  0.86041922    -0.79800
C943        C  0.27843662  0.51818227  0.00345374     0.04300
C944        C  0.29361718  0.53087629  0.52518875    -0.11800
C945        C  0.32387557  0.52802469  0.52733109     0.01800
C946        C  0.33781723  0.50593849  0.50512455    -0.10400
C947        C  0.32389421  0.49367769  0.98355854     0.04300
C948        C  0.29370023  0.49620313  0.98129575    -0.09800
H949        H  0.28245374  0.54768854  0.54238733     0.09900
H950        H  0.36089151  0.50180385  0.50717861     0.07400
H951        H  0.28222647  0.48056046  0.96306061     0.07300
C952        C  0.50279670  0.39111435  0.83839900     0.04300
C953        C  0.52024266  0.42184046  0.84542752    -0.11800
C954        C  0.52776003  0.44657531  0.82088882     0.01800
C955        C  0.51643842  0.44113301  0.78950698    -0.10400
C956        C  0.49818452  0.41161044  0.78207722     0.04300
C957        C  0.49214733  0.38615329  0.80641598    -0.09800
H958        H  0.52825863  0.42624364  0.86984169     0.09900
H959        H  0.52095358  0.46095428  0.77086271     0.07400
H960        H  0.47736622  0.36408324  0.80108637     0.07300
O961        O  0.56761882  0.05021655  0.75915904    -0.77300
C962        C  0.65638902  0.53890134  0.78923009     0.83700
O963        O  0.54437292  0.49782806  0.85273321    -0.78400
O964        O  0.64285876  0.02976923  0.87642279    -0.79900
O965        O  0.61460050  0.14330997  0.81984991    -0.79700
O966        O  0.55540479  0.10628132  0.77391140    -0.78300
Zn967      Zn  0.59005017  0.02664276  0.79508054     1.55700
O968        O  0.63727692  0.11765953  0.86098693    -0.79700
Cd969      Cd  0.57684281  0.10922271  0.82050334     1.59700
Cd970      Cd  0.57157400  0.03588290  0.87000445     1.59600
O971        O  0.55163265  0.12709811  0.86014222    -0.79700
O972        O  0.58976038  0.05897339  0.83152536    -1.90200
Cd973      Cd  0.62963820  0.06685884  0.84430812     1.59900
O974        O  0.55294829  0.08107276  0.89581236    -0.79700
O975        O  0.65595733  0.05793662  0.80602601    -0.78300
C976        C  0.54713999  0.47842723  0.82709279     0.84200
C977        C  0.55466702  0.07986379  0.75347922     0.83900
O978        O  0.63368948  0.51934928  0.78498724    -0.77300
C979        C  0.63563677  0.14274941  0.84028999     0.84700
O980        O  0.56581835  0.48637316  0.80550316    -0.77400
C981        C  0.54650023  0.11408567  0.88839224     0.84800
C982        C  0.63082237  0.00549027  0.89319485     0.85100
O983        O  0.60327977  0.00457914  0.89555522    -0.79800
C984        C  0.76705234  0.24921315  0.76297216     0.04300
C985        C  0.75017665  0.25559614  0.73518360    -0.11800
C986        C  0.72040712  0.24972940  0.73592829     0.01800
C987        C  0.70753749  0.23771528  0.76425795    -0.10400
C988        C  0.72355115  0.23093801  0.79225445     0.04300
C989        C  0.75368690  0.23665961  0.79165317    -0.09800
H990        H  0.76029944  0.26393717  0.71281895     0.09900
H991        H  0.68467413  0.23124248  0.76378475     0.07400
H992        H  0.76662624  0.23110875  0.81297276     0.07300
C993        C  0.66067912  0.16824095  0.83774226    -0.04100
C994        C  0.68913210  0.15430856  0.83609274    -0.01300
C995        C  0.71220954  0.17670870  0.82623780     0.03700
C996        C  0.70728208  0.21338558  0.81919387    -0.04100
C997        C  0.68062080  0.22862606  0.82840056    -0.01200
C998        C  0.65694622  0.20599662  0.83610287     0.03700
C999        C  0.69484992  0.11658036  0.84301718     0.38400
C1000       C  0.67734035  0.26757222  0.82763227     0.38400
C1001       C  0.62894202  0.22152614  0.84230758     0.36800
C1002       C  0.74054501  0.16132280  0.82179073     0.36800
N1003       N  0.60664201  0.23409004  0.84738420    -0.38000
N1004       N  0.76302943  0.14840240  0.81899868    -0.38000
N1005       N  0.67504978  0.29870993  0.82729584    -0.37500
N1006       N  0.70001308  0.08676795  0.84901676    -0.37500
C1007       C  0.39021781  0.42729891  0.94494703    -0.04100
C1008       C  0.37741113  0.41869092  0.97495028    -0.01300
C1009       C  0.35286235  0.43750633  0.98541226     0.03700
C1010       C  0.34141795  0.46605688  0.96665357    -0.04100
C1011       C  0.35358796  0.47394346  0.93630053    -0.01200
C1012       C  0.37767864  0.45431829  0.92525217     0.03700
C1013       C  0.38834518  0.38892825  0.99426060     0.38400
C1014       C  0.34194851  0.50323732  0.91711063     0.38400
C1015       C  0.39014307  0.46272968  0.89405436     0.36800
C1016       C  0.33998900  0.42040169  0.51646336     0.36800
N1017       N  0.40010005  0.46945017  0.86915592    -0.38000
N1018       N  0.32987492  0.41301513  0.54113255    -0.38000
N1019       N  0.33256571  0.52663637  0.90186788    -0.37500
N1020       N  0.40007804  0.36115283  0.51118885    -0.37500
C1021       C  0.38453077  0.26622987  0.83396938    -0.04100
C1022       C  0.35681249  0.28280937  0.83447690    -0.01300
C1023       C  0.33422938  0.26928398  0.81495794     0.03700
C1024       C  0.33884281  0.23904276  0.79510900    -0.04100
C1025       C  0.36445485  0.21905295  0.79855283    -0.01200
C1026       C  0.38748072  0.23275509  0.81752719     0.03700
C1027       C  0.35114625  0.31462431  0.85402274     0.38400
C1028       C  0.36751191  0.18534264  0.78087553     0.38400
C1029       C  0.41445759  0.21319208  0.81832453     0.36800
C1030       C  0.30694659  0.28833868  0.81323709     0.36800
N1031       N  0.43593436  0.19745359  0.81888678    -0.38000
N1032       N  0.28518878  0.30340682  0.81183305    -0.38000
N1033       N  0.36983145  0.15833755  0.76693763    -0.37500
N1034       N  0.34625151  0.34030817  0.86900191    -0.37500
C1035       C  0.38410270  0.50715428  0.59569853    -0.04100
C1036       C  0.35464666  0.50765317  0.60563886    -0.01300
C1037       C  0.33356023  0.52445233  0.58633014     0.03700
C1038       C  0.34139506  0.53925302  0.55634928    -0.04100
C1039       C  0.37084380  0.54823694  0.55175224    -0.01200
C1040       C  0.39235628  0.53079750  0.57042687     0.03700
C1041       C  0.34488879  0.48880038  0.63432754     0.38400
C1042       C  0.37880669  0.57058825  0.52439007     0.38400
C1043       C  0.42238186  0.53505473  0.56170194     0.36800
C1044       C  0.30351853  0.52279848  0.59585777     0.36800
N1045       N  0.44633322  0.53846086  0.55458339    -0.38000
N1046       N  0.27962605  0.52132594  0.60365998    -0.38000
N1047       N  0.38516914  0.58823975  0.50244464    -0.37500
N1048       N  0.33601075  0.47319816  0.65636121    -0.37500
C1049       C  0.38384353  0.31421912  0.66285436    -0.04100
C1050       C  0.35432476  0.32293563  0.65766861    -0.01300
C1051       C  0.33246217  0.29767639  0.66554350     0.03700
C1052       C  0.33990054  0.26423091  0.67943704    -0.04100
C1053       C  0.36891972  0.25279332  0.67677735    -0.01200
C1054       C  0.39097161  0.27812937  0.67002862     0.03700
C1055       C  0.34600795  0.35857116  0.64644205     0.38400
C1056       C  0.37618949  0.21567096  0.68431945     0.38400
C1057       C  0.42092991  0.26731923  0.67139112     0.36800
C1058       C  0.30253694  0.30633692  0.65939383     0.36800
N1059       N  0.44487953  0.25883193  0.67254924    -0.38000
N1060       N  0.27887193  0.31335007  0.65316569    -0.38000
N1061       N  0.38197758  0.18605451  0.69036598    -0.37500
N1062       N  0.33918035  0.38684971  0.63736339    -0.37500
C1063       C  0.69268268  0.94952417  0.95243754    -0.04100
C1064       C  0.66306644  0.94028235  0.95595685    -0.01300
C1065       C  0.64193644  0.95609127  0.93542478     0.03700
C1066       C  0.65066567  0.97888215  0.90978440    -0.04100
C1067       C  0.68031212  0.97811735  0.90106738    -0.00400
C1068       C  0.70123976  0.96588716  0.92321829     0.03700
C1069       C  0.65890096  0.41278598  0.96733756     0.38400
C1070       C  0.68998507  0.99098277  0.86977199     0.38400
C1071       C  0.73103621  0.97619575  0.91783604     0.36800
C1072       C  0.61625596  0.45127622  0.93130635     0.36800
N1073       N  0.75425684  0.98608784  0.91267361    -0.38000
N1074       N  0.59212233  0.44471715  0.93539365    -0.38000
N1075       N  0.69832295  0.00111276  0.84506985    -0.37500
N1076       N  0.65202589  0.39062832  0.98549706    -0.37500
C1077       C  0.70200709  0.24913427  0.70659588    -0.04100
C1078       C  0.70408490  0.21917942  0.68583354    -0.01300
C1079       C  0.67952139  0.20666193  0.66899054     0.03700
C1080       C  0.65242422  0.22423739  0.67288466    -0.04100
C1081       C  0.65173779  0.25735524  0.69024115    -0.01200
C1082       C  0.67674482  0.27006381  0.70638003     0.03700
C1083       C  0.73098184  0.19933941  0.68389859     0.38400
C1084       C  0.62513077  0.27729521  0.69362623     0.38400
C1085       C  0.67623729  0.30350161  0.72482723     0.36800
C1086       C  0.68275807  0.17496428  0.64854618     0.36800
N1087       N  0.67612698  0.33025789  0.73942814    -0.38000
N1088       N  0.68623136  0.14953517  0.63269836    -0.38000
N1089       N  0.60397416  0.29334060  0.69656748    -0.37500
N1090       N  0.75236471  0.18351727  0.68224354    -0.37500
C1091       C  0.65421521  0.07349165  0.55876985    -0.04100
C1092       C  0.66129386  0.07447037  0.52567920    -0.01300
C1093       C  0.68603826  0.05672220  0.51466495     0.03700
C1094       C  0.70183702  0.03406976  0.53576199    -0.04100
C1095       C  0.69466103  0.03281877  0.56888360    -0.01200
C1096       C  0.67170499  0.05388218  0.58061924     0.03700
C1097       C  0.64308925  0.09374429  0.50288297     0.38400
C1098       C  0.71000099  0.00888929  0.59061707     0.38400
C1099       C  0.66573399  0.05496317  0.61506054     0.36800
C1100       C  0.70165314  0.07070774  0.99362725     0.36800
N1101       N  0.66106700  0.05622129  0.64253428    -0.38000
N1102       N  0.71335477  0.07954999  0.97026852    -0.38000
N1103       N  0.72184539  0.98973432  0.60828922    -0.37500
N1104       N  0.63998000  0.12770510  0.99608002    -0.37500
C1105       C  0.29027578  0.26857098  0.98338039    -0.04100
C1106       C  0.31196745  0.24295973  0.99013409    -0.01300
C1107       C  0.34126014  0.25030315  0.98253143     0.03700
C1108       C  0.34914352  0.28320711  0.96727873    -0.04100
C1109       C  0.32713473  0.30959991  0.96234114    -0.01200
C1110       C  0.29822689  0.30237539  0.97081959     0.03700
C1111       C  0.30411350  0.20881994  0.00478790     0.38400
C1112       C  0.33330840  0.34431265  0.94763245     0.38400
C1113       C  0.27740358  0.31646856  0.46474528     0.36800
C1114       C  0.36287475  0.22317972  0.98931689     0.36800
N1115       N  0.25919921  0.33723860  0.46066348    -0.38000
N1116       N  0.38009079  0.20152423  0.99490292    -0.38000
N1117       N  0.33701700  0.37191042  0.93519017    -0.37500
N1118       N  0.29816609  0.18157471  0.01676229    -0.37500
C1119       C  0.19682194  0.21556335  0.93888788    -0.04100
C1120       C  0.20466385  0.17986007  0.93102214    -0.01300
C1121       C  0.18318065  0.15431187  0.92241254     0.03700
C1122       C  0.15369203  0.16450958  0.92159637    -0.04100
C1123       C  0.14667620  0.20139710  0.92417850    -0.01200
C1124       C  0.16839625  0.22702146  0.93177059     0.03700
C1125       C  0.23450076  0.16869922  0.93373524     0.38400
C1126       C  0.11709877  0.21285578  0.91966086     0.38400
C1127       C  0.16129918  0.26504845  0.93426735     0.36800
C1128       C  0.19154239  0.11701894  0.91706387     0.36800
N1129       N  0.15852048  0.28798316  0.44235980    -0.38000
N1130       N  0.19864807  0.08744993  0.91282878    -0.38000
N1131       N  0.09348176  0.22197122  0.91603209    -0.37500
N1132       N  0.25835358  0.15988008  0.93541617    -0.37500
C1133       C  0.24593197  0.52089060  0.00201501    -0.04100
C1134       C  0.22810035  0.48951748  0.00081056    -0.01300
C1135       C  0.19786282  0.49242877  0.99560097     0.03700
C1136       C  0.18479911  0.52681564  0.99332691    -0.04100
C1137       C  0.20247381  0.05959330  0.99725210    -0.01200
C1138       C  0.23243392  0.55511328  0.00226352     0.03700
C1139       C  0.24076462  0.45412786  0.00530955     0.38400
C1140       C  0.18859225  0.09443071  0.00137789     0.38400
C1141       C  0.24945619  0.09114684  0.00006552     0.36800
C1142       C  0.18057488  0.45995490  0.99135971     0.36800
N1143       N  0.26259857  0.11781399  0.00090946    -0.38000
N1144       N  0.16685646  0.43392475  0.98805513    -0.38000
N1145       N  0.17761470  0.12220410  0.00465966    -0.37500
N1146       N  0.25091720  0.42594115  0.00908460    -0.37500
C1147       C  0.74437824  0.50536807  0.77239518    -0.04100
C1148       C  0.73607303  0.54139046  0.76635427    -0.01300
C1149       C  0.70703246  0.55195447  0.76969701     0.03700
C1150       C  0.68558214  0.52634101  0.77867794    -0.04100
C1151       C  0.69378921  0.48969590  0.78282916    -0.01200
C1152       C  0.72293536  0.47932557  0.77931856     0.03700
C1153       C  0.75761022  0.56767256  0.75651007     0.38400
C1154       C  0.67289169  0.46290345  0.79332535     0.38400
C1155       C  0.73068805  0.44152957  0.78182990     0.36800
C1156       C  0.69956981  0.58958213  0.76447433     0.36800
N1157       N  0.73652528  0.41121585  0.78331222    -0.38000
N1158       N  0.69388365  0.61969480  0.76058300    -0.38000
N1159       N  0.65774933  0.93357800  0.78536082    -0.37500
N1160       N  0.77503515  0.58796746  0.74800492    -0.37500
C1161       C  0.88596766  0.41168432  0.83327946    -0.04100
C1162       C  0.89128704  0.44900989  0.82923295    -0.01300
C1163       C  0.86801888  0.47275234  0.82367507     0.03700
C1164       C  0.83958432  0.45902176  0.81997593    -0.04100
C1165       C  0.83387617  0.42325994  0.82954447    -0.01200
C1166       C  0.85687893  0.39927829  0.83511313     0.03700
C1167       C  0.92060611  0.46281200  0.82930147     0.38400
C1168       C  0.80438148  0.41035599  0.83167618     0.38400
C1169       C  0.85016336  0.36113745  0.83917378     0.36800
C1170       C  0.87335955  0.51097857  0.81849893     0.36800
N1171       N  0.84435159  0.33083686  0.84207750    -0.38000
N1172       N  0.87744246  0.54152038  0.81438258    -0.38000
N1173       N  0.78102639  0.39963839  0.83425996    -0.37500
N1174       N  0.94399061  0.47392335  0.82909653    -0.37500
C1175       C  0.85923613  0.26783395  0.76308202    -0.04100
C1176       C  0.83998721  0.29639808  0.75591145    -0.01300
C1177       C  0.80995797  0.29043601  0.75645664     0.03700
C1178       C  0.79883892  0.25526107  0.76131647    -0.04100
C1179       C  0.81811608  0.22587843  0.76259551    -0.01200
C1180       C  0.84823574  0.23206309  0.76386447     0.03700
C1181       C  0.85107399  0.33214901  0.74815632     0.38400
C1182       C  0.80703694  0.18920994  0.76203433     0.38400
C1183       C  0.86756825  0.20157751  0.76671244     0.36800
C1184       C  0.79056003  0.32089076  0.75349791     0.36800
N1185       N  0.88285622  0.17706857  0.76869294    -0.38000
N1186       N  0.77514524  0.34523847  0.75127220    -0.38000
N1187       N  0.79858742  0.15974690  0.76106319    -0.37500
N1188       N  0.85985573  0.36058444  0.74171090    -0.37500
C1189       C  0.29281156  0.96173618  0.73978548    -0.04100
C1190       C  0.30667973  0.92925888  0.74868085    -0.01300
C1191       C  0.33318732  0.42800743  0.73683063     0.03700
C1192       C  0.35151819  0.45770463  0.72943792    -0.04100
C1193       C  0.34015597  0.98856134  0.72774176    -0.01200
C1194       C  0.31002849  0.99212828  0.73182639     0.03700
C1195       C  0.28991804  0.89897424  0.76071457     0.38400
C1196       C  0.35669641  0.01858722  0.71480834     0.38400
C1197       C  0.29699039  0.02746745  0.72909891     0.36800
C1198       C  0.34488209  0.39181052  0.73975449     0.36800
N1199       N  0.28702425  0.05601890  0.72772925    -0.38000
N1200       N  0.35402767  0.36285204  0.74172008    -0.38000
N1201       N  0.36983394  0.04231955  0.70400729    -0.37500
N1202       N  0.26996831  0.37837136  0.75453222    -0.37500
C1203       C  0.19939067  0.97198648  0.79847815    -0.04100
C1204       C  0.19721814  0.00887229  0.80683062    -0.01300
C1205       C  0.17533301  0.02034758  0.82750563     0.03700
C1206       C  0.15556550  0.99502228  0.84040266    -0.04100
C1207       C  0.15812008  0.95797793  0.83290242    -0.01200
C1208       C  0.18016220  0.94643624  0.81190231     0.03700
C1209       C  0.21598626  0.03556554  0.79181561     0.38400
C1210       C  0.13811896  0.93201034  0.84657159     0.38400
C1211       C  0.18271809  0.90857211  0.80330440     0.36800
C1212       C  0.17230720  0.05875136  0.83428867     0.36800
N1213       N  0.17864608  0.38837949  0.78175627    -0.38000
N1214       N  0.16978469  0.08926882  0.83974663    -0.38000
N1215       N  0.11718799  0.41761447  0.84572002    -0.37500
N1216       N  0.23068079  0.05684760  0.77958116    -0.37500
C1217       C  0.16198768  0.23551748  0.59869283    -0.04100
C1218       C  0.19203906  0.22957727  0.60467733    -0.01300
C1219       C  0.21253247  0.23823641  0.58088780     0.03700
C1220       C  0.20370369  0.25624881  0.55266440    -0.04100
C1221       C  0.17595262  0.27171696  0.55182977    -0.01200
C1222       C  0.15460697  0.26003836  0.57376431     0.03700
C1223       C  0.20258555  0.21486413  0.63502385     0.38400
C1224       C  0.16964855  0.29926645  0.52797681     0.38400
C1225       C  0.12549622  0.27351087  0.57048227     0.36800
C1226       C  0.24228162  0.22706617  0.58504255     0.36800
N1227       N  0.10233111  0.28456690  0.56772651    -0.38000
N1228       N  0.26599052  0.21832898  0.58874024    -0.38000
N1229       N  0.16503662  0.32196201  0.50946459    -0.37500
N1230       N  0.21162854  0.20362977  0.65911761    -0.37500
C1231       C  0.15584858  0.05142838  0.67335410    -0.04100
C1232       C  0.18589706  0.05923958  0.67204443    -0.01300
C1233       C  0.20637847  0.03157464  0.67633820     0.03700
C1234       C  0.19738116  0.99666967  0.68566782    -0.04100
C1235       C  0.16783087  0.98754369  0.68089852    -0.01200
C1236       C  0.14710911  0.01486517  0.67526873     0.03700
C1237       C  0.19631910  0.09607578  0.66862997     0.38400
C1238       C  0.15868426  0.95012375  0.68374810     0.38400
C1239       C  0.11690382  0.00537003  0.67153696     0.36800
C1240       C  0.23651976  0.03922588  0.67031019     0.36800
N1241       N  0.09277933  0.99790637  0.66831664    -0.38000
N1242       N  0.26027658  0.04560303  0.66399280    -0.38000
N1243       N  0.15135025  0.92027778  0.68609287    -0.37500
N1244       N  0.20506198  0.12527806  0.66609809    -0.37500
C1245       C  0.24541580  0.22520269  0.73441630    -0.04100
C1246       C  0.22592765  0.25286789  0.72568021    -0.01300
C1247       C  0.19585037  0.24594827  0.72481633     0.03700
C1248       C  0.18490504  0.21189010  0.73460962    -0.04100
C1249       C  0.20422718  0.18630019  0.74769724    -0.01200
C1250       C  0.23423985  0.19206092  0.74610018     0.03700
C1251       C  0.23666561  0.28871961  0.71816663     0.38400
C1252       C  0.19307963  0.15361606  0.76257771     0.38400
C1253       C  0.25353309  0.16301381  0.75519319     0.36800
C1254       C  0.17658839  0.27322066  0.71202808     0.36800
N1255       N  0.26882836  0.13973754  0.76236961    -0.38000
N1256       N  0.16140260  0.29512435  0.70170794    -0.38000
N1257       N  0.18400796  0.12776298  0.77460683    -0.37500
N1258       N  0.24489268  0.31761972  0.71261542    -0.37500
C1259       C  0.74817947  0.23238235  0.53677067    -0.04100
C1260       C  0.73537500  0.25724509  0.55845133    -0.01300
C1261       C  0.70523699  0.25634003  0.56386721     0.03700
C1262       C  0.68716134  0.23291693  0.54561028    -0.04100
C1263       C  0.69955169  0.21138948  0.52118647    -0.01200
C1264       C  0.72983143  0.20973122  0.51782092     0.03700
C1265       C  0.75296056  0.28467606  0.57435703     0.38400
C1266       C  0.68115350  0.18988837  0.50003960     0.38400
C1267       C  0.74196122  0.18319548  0.49590818     0.36800
C1268       C  0.69274634  0.27951552  0.58834757     0.36800
N1269       N  0.77275887  0.12415623  0.04891725    -0.38000
N1270       N  0.68282739  0.29801583  0.60791646    -0.38000
N1271       N  0.66661758  0.17332184  0.48253386    -0.37500
N1272       N  0.76687554  0.30696786  0.58665603    -0.37500
C1273       C  0.83435562  0.22514198  0.95347387    -0.04100
C1274       C  0.83565591  0.26074692  0.94156788    -0.01300
C1275       C  0.85957752  0.27225155  0.92359190     0.03700
C1276       C  0.88062027  0.24714958  0.91354741    -0.04100
C1277       C  0.87775220  0.21054044  0.92240273    -0.01200
C1278       C  0.85517062  0.19979475  0.94323239     0.03700
C1279       C  0.81342111  0.28649847  0.94977014     0.38400
C1280       C  0.89800986  0.18419761  0.91030754     0.38400
C1281       C  0.85405574  0.16316403  0.95553751     0.36800
C1282       C  0.86374081  0.31069506  0.91786849     0.36800
N1283       N  0.85318959  0.13397307  0.96551542    -0.38000
N1284       N  0.86719838  0.34141829  0.91413301    -0.38000
N1285       N  0.91411678  0.16318131  0.90043325    -0.37500
N1286       N  0.79587208  0.30758067  0.95549866    -0.37500
C1287       C  0.83289716  0.48599224  0.70522151    -0.04100
C1288       C  0.85765789  0.50751135  0.69988927    -0.01300
C1289       C  0.87812084  0.49700803  0.67667849     0.03700
C1290       C  0.87397961  0.46462644  0.65892384    -0.04100
C1291       C  0.84699616  0.44595500  0.66143111    -0.01200
C1292       C  0.82687339  0.45637930  0.68486150     0.03700
C1293       C  0.86252919  0.53965654  0.71945565     0.38400
C1294       C  0.83951713  0.41547690  0.64061879     0.38400
C1295       C  0.80096056  0.43477227  0.68972996     0.36800
C1296       C  0.90276915  0.52021513  0.67040827     0.36800
N1297       N  0.78040928  0.41742501  0.69356070    -0.38000
N1298       N  0.92221025  0.53903730  0.66516675    -0.38000
N1299       N  0.83310575  0.39169344  0.62369465    -0.37500
N1300       N  0.86627650  0.56524883  0.73516448    -0.37500
C1301       C  0.85183141  0.23394881  0.58239045    -0.04100
C1302       C  0.88093417  0.22492821  0.57602472    -0.01300
C1303       C  0.90252742  0.25202158  0.57897389     0.03700
C1304       C  0.89557567  0.28529032  0.59384686    -0.04100
C1305       C  0.86992692  0.28612447  0.61250477    -0.01200
C1306       C  0.84755982  0.26092287  0.60601393     0.03700
C1307       C  0.88199324  0.20231907  0.06300219     0.38400
C1308       C  0.86683726  0.31206050  0.63863466     0.38400
C1309       C  0.82100262  0.26227825  0.62412391     0.36800
C1310       C  0.93084598  0.24603254  0.56557778     0.36800
N1311       N  0.80013457  0.26320504  0.63929830    -0.38000
N1312       N  0.95346191  0.24111268  0.55483717    -0.38000
N1313       N  0.86456004  0.33216239  0.65997896    -0.37500
N1314       N  0.88865221  0.17301719  0.05680040    -0.37500
C1315       C  0.85185876  0.45810753  0.51994135    -0.04100
C1316       C  0.84498285  0.95610207  0.48337401    -0.01300
C1317       C  0.80941351  0.95103302  0.98572047     0.03700
C1318       C  0.79724713  0.97454420  0.50479919    -0.04100
C1319       C  0.81181752  0.98332505  0.53454575    -0.01200
C1320       C  0.84219666  0.98146468  0.53716751     0.03700
C1321       C  0.85819127  0.51655572  0.02479502     0.38400
C1322       C  0.79626136  0.99164641  0.56396567     0.38400
C1323       C  0.84761363  0.48891106  0.57260839     0.36800
C1324       C  0.79819430  0.93890829  0.95475819     0.36800
N1325       N  0.85804387  0.50296746  0.59488224    -0.38000
N1326       N  0.79065309  0.92743026  0.92997329    -0.38000
N1327       N  0.78460520  0.99851709  0.58786552    -0.37500
N1328       N  0.87302677  0.54096949  0.03090882    -0.37500
C1329       C  0.03342273  0.59299822  0.09006704     0.04300
C1330       C  0.04409650  0.59750997  0.05830590    -0.11800
C1331       C  0.03724949  0.57242166  0.03376539     0.01800
C1332       C  0.01807467  0.54396462  0.04040488    -0.10400
C1333       C  0.00666339  0.53874591  0.07144372     0.04300
C1334       C  0.01502101  0.56295488  0.09652824    -0.09800
H1335       H  0.05967685  0.61871021  0.05334446     0.09900
H1336       H  0.01318811  0.52443329  0.02143157     0.07400
H1337       H  0.00718523  0.55853917  0.12082132     0.07300
O1338       O  0.96943574  0.92573362  0.00542895    -0.77300
C1339       C  0.88213097  0.94503230  0.02948594     0.83700
O1340       O  0.98887786  0.98537608  0.10581695    -0.78400
O1341       O  0.89152519  0.93565660  0.11501774    -0.79900
O1342       O  0.93551640  0.82349297  0.07195486    -0.79700
O1343       O  0.98578145  0.87146648  0.02153613    -0.78300
Zn1344     Zn  0.94770681  0.94991134  0.04199676     1.55700
O1345       O  0.90045948  0.85286290  0.09616450    -0.79700
Cd1346     Cd  0.96627708  0.86682196  0.06838028     1.59700
Cd1347     Cd  0.96287496  0.93909771  0.11811672     1.59600
O1348       O  0.99299610  0.85382582  0.10846457    -0.79700
O1349       O  0.94849044  0.91545751  0.07700814    -1.90200
Cd1350     Cd  0.90794709  0.90376297  0.08122399     1.59900
O1351       O  0.98306054  0.89706886  0.14487267    -0.79700
O1352       O  0.88310102  0.91354073  0.04139434    -0.78300
C1353       C  0.98877641  0.00344463  0.07923931     0.84200
C1354       C  0.98403378  0.89700900  0.00042311     0.83900
O1355       O  0.90484717  0.96509664  0.02926942    -0.77300
C1356       C  0.91178162  0.82332070  0.08772073     0.84700
O1357       O  0.97304177  0.99338853  0.05514485    -0.77400
C1358       C  0.99337296  0.86586851  0.13768640     0.84800
C1359       C  0.90023387  0.95351477  0.13928880     0.85100
O1360       O  0.92722102  0.95726779  0.14519668    -0.79800
C1361       C  0.78107136  0.72375988  0.03039119     0.04300
C1362       C  0.79962072  0.72542102  0.05781260    -0.11800
C1363       C  0.82968081  0.73002750  0.05411349     0.01800
C1364       C  0.83644023  0.73512874  0.51836213    -0.10400
C1365       C  0.81887934  0.72961685  0.49143731     0.04300
C1366       C  0.78903262  0.72597717  0.49517329    -0.09800
H1367       H  0.79043230  0.72312228  0.08171435     0.09900
H1368       H  0.85910617  0.74083415  0.51435226     0.07400
H1369       H  0.77524184  0.72265809  0.47409012     0.07300
C1370       C  0.00389521  0.84153382  0.16446924     0.04300
C1371       C  0.02184494  0.81136959  0.15785604    -0.11800
C1372       C  0.02924042  0.78652974  0.18254975     0.01800
C1373       C  0.01751671  0.79132128  0.21347176    -0.10400
C1374       C  0.99875888  0.81982714  0.22049153     0.04300
C1375       C  0.99268494  0.84548379  0.19622256    -0.09800
H1376       H  0.03006655  0.80728363  0.13368911     0.09900
H1377       H  0.02197002  0.77146037  0.23213031     0.07400
H1378       H  0.97747477  0.86682487  0.20136782     0.07300
O1379       O  0.06760827  0.67605739  0.24845706    -0.77300
C1380       C  0.15421029  0.69086610  0.22127966     0.83700
O1381       O  0.04607722  0.73564573  0.15109727    -0.78400
O1382       O  0.14448651  0.69150463  0.13252432    -0.79900
O1383       O  0.10831149  0.58074322  0.18662592    -0.79700
O1384       O  0.05289749  0.62096210  0.23260097    -0.78300
Zn1385     Zn  0.08928407  0.70030234  0.21177430     1.55700
O1386       O  0.13275686  0.60542833  0.14669187    -0.79700
Cd1387     Cd  0.07324783  0.61836954  0.18590805     1.59700
Cd1388     Cd  0.07298381  0.69275916  0.13614518     1.59600
O1389       O  0.04786810  0.60340084  0.14520472    -0.79700
O1390       O  0.08827235  0.66801721  0.17549643    -1.90200
Cd1391     Cd  0.12761101  0.65636205  0.16404050     1.59900
O1392       O  0.05338249  0.64929361  0.10977856    -0.79700
O1393       O  0.15311904  0.66288046  0.20342515    -0.78300
C1394       C  0.04819110  0.75444159  0.17719182     0.84200
C1395       C  0.05394900  0.64655499  0.25381860     0.83900
O1396       O  0.13195714  0.71079670  0.22522721    -0.77300
C1397       C  0.12917036  0.57970086  0.16639595     0.84700
O1398       O  0.06536580  0.74526790  0.20020915    -0.77400
C1399       C  0.04492744  0.61689409  0.11669711     0.84800
C1400       C  0.13458965  0.71583922  0.11426383     0.85100
O1401       O  0.10726947  0.71969204  0.11123353    -0.79800
C1402       C  0.25803511  0.46238342  0.23519619     0.04300
C1403       C  0.24255323  0.47385477  0.20730580    -0.11800
C1404       C  0.21227780  0.47882531  0.20853548     0.01800
C1405       C  0.19814494  0.47037056  0.23735984    -0.10400
C1406       C  0.21319558  0.46010886  0.26506824     0.04300
C1407       C  0.24306461  0.45593544  0.26403962    -0.09800
H1408       H  0.25417123  0.47970299  0.18528059     0.09900
H1409       H  0.17540411  0.47640234  0.23974225     0.07400
H1410       H  0.25484055  0.44994541  0.28613641     0.07300
C1411       C  0.03421015  0.62298233  0.34150791     0.04300
C1412       C  0.01592304  0.65274011  0.34852043    -0.11800
C1413       C  0.00755345  0.67722347  0.32388589     0.01800
C1414       C  0.01897772  0.67253293  0.29263892    -0.10400
C1415       C  0.03796915  0.64432890  0.28515445     0.04300
C1416       C  0.04477750  0.61898837  0.30946386    -0.09800
H1417       H  0.00813172  0.65663594  0.37287565     0.09900
H1418       H  0.01404180  0.69218967  0.27399595     0.07400
H1419       H  0.06012318  0.59784430  0.30410699     0.07300
O1420       O  0.90508313  0.75179165  0.27969066    -0.77300
C1421       C  0.98246162  0.81772503  0.25139575     0.83700
O1422       O  0.98835571  0.72669939  0.35625947    -0.78400
O1423       O  0.98823048  0.86265236  0.35856239    -0.79900
O1424       O  0.90369140  0.85534499  0.35695552    -0.79700
O1425       O  0.88698943  0.80410954  0.29504786    -0.78300
Zn1426     Zn  0.94788318  0.76321297  0.29323803     1.55700
O1427       O  0.92681414  0.88210242  0.31733009    -0.79700
Cd1428     Cd  0.90937719  0.80615363  0.33686575     1.59700
Cd1429     Cd  0.96354940  0.77315013  0.36960248     1.59600
O1430       O  0.89080714  0.77056882  0.36641318    -0.79700
O1431       O  0.94921502  0.79594120  0.32901563    -1.90200
Cd1432     Cd  0.96281697  0.84616555  0.31851872     1.59900
O1433       O  0.92785217  0.75741450  0.39879187    -0.79700
O1434       O  0.98301259  0.84367111  0.27221121    -0.78300
C1435       C  0.98799667  0.70897536  0.32937846     0.84200
C1436       C  0.88400265  0.77404824  0.28067379     0.83900
O1437       O  0.96928656  0.78790908  0.25690667    -0.77300
C1438       C  0.90597807  0.88142806  0.33753741     0.84700
O1439       O  0.97223503  0.71911120  0.30545517    -0.77400
C1440       C  0.90073085  0.75803978  0.39260588     0.84800
C1441       C  0.99274598  0.84887128  0.38666198     0.85100
O1442       O  0.98536489  0.81617757  0.39362397    -0.79800
C1443       C  0.77468063  0.99341938  0.26756877     0.04300
C1444       C  0.78969844  0.98096308  0.29530230    -0.11800
C1445       C  0.81955252  0.97380956  0.29359075     0.01800
C1446       C  0.83364205  0.97896997  0.26419511    -0.10400
C1447       C  0.81926804  0.99168568  0.23687356     0.04300
C1448       C  0.78977471  0.99911085  0.23859660    -0.09800
H1449       H  0.77825321  0.97677761  0.31774139     0.09900
H1450       H  0.85604558  0.97115363  0.26201242     0.07400
H1451       H  0.77842612  0.00867482  0.21729803     0.07300
C1452       C  0.00455246  0.87265486  0.41306086     0.04300
C1453       C  0.99463495  0.86747529  0.44508891    -0.11800
C1454       C  0.00161392  0.89246452  0.46961326     0.01800
C1455       C  0.02024724  0.92132259  0.46265701    -0.10400
C1456       C  0.03063583  0.92737950  0.43130982     0.04300
C1457       C  0.02214675  0.90330376  0.40625329    -0.09800
H1458       H  0.97943218  0.84591740  0.45028085     0.09900
H1459       H  0.02524381  0.94075758  0.48167780     0.07400
H1460       H  0.02919098  0.90831845  0.38172854     0.07300
O1461       O  0.13216341  0.00657383  0.47848888    -0.77300
C1462       C  0.05379926  0.56526126  0.50384556     0.83700
O1463       O  0.04584012  0.97969591  0.40056560    -0.78400
O1464       O  0.04982704  0.61195360  0.39636589    -0.79900
O1465       O  0.13318903  0.60372224  0.39787353    -0.79700
O1466       O  0.15322730  0.55105857  0.45657475    -0.78300
Zn1467     Zn  0.09051306  0.51237563  0.46304086     1.55700
O1468       O  0.11092835  0.62891330  0.43908603    -0.79700
Cd1469     Cd  0.12816865  0.55419966  0.41695605     1.59700
Cd1470     Cd  0.07276507  0.52276058  0.38611340     1.59600
O1471       O  0.14478216  0.51913182  0.38603537    -0.79700
O1472       O  0.08857580  0.54453124  0.42669696    -1.90200
Cd1473     Cd  0.07427478  0.59416580  0.43697565     1.59900
O1474       O  0.10646257  0.50333004  0.35649314    -0.79700
O1475       O  0.05328091  0.59107591  0.48300260    -0.78300
C1476       C  0.04888640  0.96031707  0.42616616     0.84200
C1477       C  0.15301893  0.02939078  0.47590576     0.83900
O1478       O  0.06761292  0.53605711  0.49867816    -0.77300
C1479       C  0.13149929  0.62879628  0.41853105     0.84700
O1480       O  0.06609652  0.96967425  0.44928016    -0.77400
C1481       C  0.13371868  0.50410886  0.36141171     0.84800
C1482       C  0.04541926  0.59865445  0.36793006     0.85100
O1483       O  0.05219329  0.56584527  0.36091170    -0.79800
C1484       C  0.26093893  0.74509381  0.49041427     0.04300
C1485       C  0.24552195  0.76583211  0.01861737    -0.11800
C1486       C  0.21587869  0.75761036  0.02151421     0.01800
C1487       C  0.20183375  0.74021551  0.99573744    -0.10400
C1488       C  0.21713187  0.72134832  0.46514062     0.04300
C1489       C  0.24676279  0.72880896  0.46382438    -0.09800
H1490       H  0.25694516  0.77945578  0.03809109     0.09900
H1491       H  0.17956090  0.73168936  0.99850514     0.07400
H1492       H  0.25874958  0.72246741  0.44212695     0.07300
C1493       C  0.50393543  0.85006647  0.08988105     0.04300
C1494       C  0.49495156  0.85493543  0.05743266    -0.11800
C1495       C  0.50294954  0.83037363  0.03311165     0.01800
C1496       C  0.52170511  0.80201052  0.04074203    -0.10400
C1497       C  0.53147133  0.79634462  0.07260137     0.04300
C1498       C  0.52193261  0.82011236  0.09731188    -0.09800
H1499       H  0.47970916  0.87602111  0.05153413     0.09900
H1500       H  0.52726937  0.78271901  0.02194009     0.07400
H1501       H  0.52836638  0.81522026  0.12213323     0.07300
O1502       O  0.63671043  0.71317988  0.04078663    -0.77300
C1503       C  0.55178792  0.66120601  0.00376589     0.83700
O1504       O  0.54394527  0.74367963  0.10389014    -0.78400
O1505       O  0.54497420  0.61007859  0.11064767    -0.79900
O1506       O  0.63069371  0.60431103  0.09847832    -0.79700
O1507       O  0.65487291  0.68375442  0.08327630    -0.78300
Zn1508     Zn  0.59176317  0.70763080  0.04836806     1.55700
O1509       O  0.60090311  0.59236434  0.05765450    -0.79700
Cd1510     Cd  0.62123507  0.65741743  0.10410577     1.59700
Cd1511     Cd  0.56804320  0.69923663  0.12026057     1.59600
O1512       O  0.62144725  0.66811432  0.15207933    -0.79700
O1513       O  0.58565420  0.67430961  0.08299745    -1.90200
Cd1514     Cd  0.56746992  0.62836153  0.06929388     1.59900
O1515       O  0.60312298  0.72153346  0.14588584    -0.79700
O1516       O  0.54543791  0.63772542  0.02542581    -0.78300
C1517       C  0.54939836  0.76353870  0.07924627     0.84200
C1518       C  0.65841625  0.70176306  0.05741860     0.83900
O1519       O  0.57034064  0.68646522  0.00892918    -0.77300
C1520       C  0.62403201  0.58604462  0.07358493     0.84700
O1521       O  0.56883920  0.75463250  0.05866926    -0.77400
C1522       C  0.62301688  0.70166455  0.15728113     0.84800
C1523       C  0.54120120  0.62359644  0.13906335     0.85100
O1524       O  0.54797099  0.65658493  0.14601958    -0.79800
C1525       C  0.75778169  0.46783955  0.00525395     0.04300
C1526       C  0.74210445  0.48910547  0.02759915    -0.11800
C1527       C  0.71211534  0.49306472  0.02376635     0.01800
C1528       C  0.69673371  0.47682302  0.50143122    -0.10400
C1529       C  0.71040641  0.45407041  0.47983196     0.04300
C1530       C  0.74018725  0.44727028  0.48422475    -0.09800
H1531       H  0.75309675  0.50303024  0.04725313     0.09900
H1532       H  0.67368857  0.48133046  0.49912900     0.07400
H1533       H  0.74908948  0.42580606  0.47028074     0.07300
C1534       C  0.53071656  0.59932951  0.16555631     0.04300
C1535       C  0.54138564  0.60435015  0.19753593    -0.11800
C1536       C  0.53534836  0.57895882  0.22193299     0.01800
C1537       C  0.51686475  0.54963066  0.21468407    -0.10400
C1538       C  0.50567228  0.54399068  0.18331848     0.04300
C1539       C  0.51325209  0.56858512  0.15863969    -0.09800
H1540       H  0.55637444  0.62622969  0.20274510     0.09900
H1541       H  0.51241834  0.52979710  0.23333946     0.07400
H1542       H  0.50545972  0.56390751  0.13417131     0.07300
O1543       O  0.40125370  0.96375909  0.22341323    -0.77300
C1544       C  0.48163272  0.90491098  0.25100813     0.83700
O1545       O  0.48976208  0.99024678  0.15235262    -0.78400
O1546       O  0.48747168  0.85965822  0.14418109    -0.79900
O1547       O  0.40222578  0.85883362  0.14447587    -0.79700
O1548       O  0.38034429  0.91601908  0.19984995    -0.78300
Zn1549     Zn  0.44409811  0.95592319  0.20955421     1.55700
O1550       O  0.42672079  0.83611726  0.18554151    -0.79700
Cd1551     Cd  0.40652573  0.91058282  0.16099826     1.59700
Cd1552     Cd  0.46246078  0.94804856  0.13576098     1.59600
O1553       O  0.39023381  0.94720422  0.12984348    -0.79700
O1554       O  0.44584296  0.92303661  0.17375140    -1.90200
Cd1555     Cd  0.46172372  0.87427431  0.18415868     1.59900
O1556       O  0.42858902  0.97696124  0.11273783    -0.79700
O1557       O  0.48291633  0.87899027  0.23021763    -0.78300
C1558       C  0.48635536  0.01010987  0.17754474     0.84200
C1559       C  0.37925075  0.94301190  0.21889622     0.83900
O1560       O  0.46687652  0.93331125  0.24573195    -0.77300
C1561       C  0.40570193  0.83398868  0.16519481     0.84700
O1562       O  0.46761493  0.00199528  0.19909655    -0.77400
C1563       C  0.40115351  0.97362332  0.11471033     0.84800
C1564       C  0.49109463  0.87338774  0.11592399     0.85100
O1565       O  0.48243344  0.90557133  0.10884276    -0.79800
C1566       C  0.27517353  0.72225415  0.23868201     0.04300
C1567       C  0.29096355  0.73147536  0.21052989    -0.11800
C1568       C  0.32086666  0.73922425  0.21282680     0.01800
C1569       C  0.33419571  0.73676535  0.24316862    -0.10400
C1570       C  0.31888808  0.72766137  0.27081715     0.04300
C1571       C  0.28938572  0.72058661  0.26876025    -0.09800
H1572       H  0.27992500  0.73316550  0.18737204     0.09900
H1573       H  0.35666622  0.74465786  0.24593912     0.07400
H1574       H  0.27737036  0.71488803  0.29057423     0.07300
C1575       C  0.53309718  0.63403561  0.41431990     0.04300
C1576       C  0.51497381  0.66390706  0.40662194    -0.11800
C1577       C  0.50588520  0.68840858  0.43104286     0.01800
C1578       C  0.51614625  0.68367436  0.46270775    -0.10400
C1579       C  0.53511508  0.65586223  0.47060423     0.04300
C1580       C  0.54289903  0.63046205  0.44672161    -0.09800
H1581       H  0.50791529  0.66798751  0.38187174     0.09900
H1582       H  0.51062230  0.70325453  0.48127283     0.07400
H1583       H  0.55819041  0.60952604  0.45286855     0.07300
O1584       O  0.46785816  0.79980266  0.49549897    -0.77300
C1585       C  0.37908245  0.77604920  0.45474203     0.83700
O1586       O  0.49124507  0.74018539  0.39958088    -0.78400
O1587       O  0.40919476  0.81081264  0.35631825    -0.79900
O1588       O  0.43053680  0.89190955  0.44493508    -0.79700
O1589       O  0.48765072  0.85160865  0.47814684    -0.78300
Zn1590     Zn  0.44582898  0.77599144  0.45806920     1.55700
O1591       O  0.39754457  0.87257373  0.40972751    -0.79700
Cd1592     Cd  0.46466027  0.85649054  0.43440046     1.59700
Cd1593     Cd  0.46551583  0.78379125  0.38450625     1.59600
O1594       O  0.48688884  0.87394308  0.39289387    -0.79700
O1595       O  0.44833995  0.80857530  0.42252739    -1.90200
Cd1596     Cd  0.41049259  0.82096960  0.40414939     1.59900
O1597       O  0.48456247  0.82684165  0.35806172    -0.79700
O1598       O  0.37960564  0.79180762  0.42741687    -0.78300
C1599       C  0.48736543  0.72075467  0.42483716     0.84200
C1600       C  0.48401934  0.82759448  0.50005160     0.83900
O1601       O  0.40244864  0.76803431  0.46992058    -0.77300
C1602       C  0.40585927  0.89464209  0.43127116     0.84700
O1603       O  0.46914457  0.72991662  0.44667390    -0.77400
C1604       C  0.49107760  0.86000716  0.36476466     0.84800
C1605       C  0.40883829  0.77730910  0.35098172     0.85100
O1606       O  0.43039640  0.75902844  0.36048409    -0.79800
C1607       C  0.27584830  0.01719273  0.50050164     0.04300
C1608       C  0.29434141  0.03831686  0.02576557    -0.11800
C1609       C  0.32442815  0.03457012  0.02938100     0.01800
C1610       C  0.33963163  0.01776841  0.00455918    -0.10400
C1611       C  0.32053527  0.99232508  0.47889128     0.04300
C1612       C  0.29039018  0.99560819  0.47744504    -0.09800
H1613       H  0.28218968  0.05179574  0.04443654     0.09900
H1614       H  0.36255127  0.01292992  0.00747755     0.07400
H1615       H  0.27833847  0.98034618  0.45940593     0.07300
C1616       C  0.50197795  0.88405644  0.33841737     0.04300
C1617       C  0.51956276  0.91469748  0.34554382    -0.11800
C1618       C  0.52754775  0.93917112  0.32093323     0.01800
C1619       C  0.51648639  0.93350128  0.28945281    -0.10400
C1620       C  0.49813782  0.90411551  0.28202388     0.04300
C1621       C  0.49175342  0.87886692  0.30634930    -0.09800
H1622       H  0.52723074  0.91925809  0.37006491     0.09900
H1623       H  0.52118628  0.95313459  0.27070826     0.07400
H1624       H  0.47683588  0.85694458  0.30096400     0.07300
O1625       O  0.56654108  0.54869952  0.25761864    -0.77300
C1626       C  0.65458762  0.03234749  0.28291752     0.83700
O1627       O  0.54508241  0.99025321  0.35285419    -0.78400
O1628       O  0.64322830  0.53033093  0.37286187    -0.79900
O1629       O  0.60969231  0.64353305  0.31940739    -0.79700
O1630       O  0.55206084  0.60353543  0.27357618    -0.78300
Zn1631     Zn  0.58930533  0.52510656  0.29331050     1.55700
O1632       O  0.63292261  0.61837017  0.36026707    -0.79700
Cd1633     Cd  0.57368550  0.60682077  0.31972847     1.59700
Cd1634     Cd  0.57139367  0.53282530  0.36829063     1.59600
O1635       O  0.54866801  0.62273199  0.35990437    -0.79700
O1636       O  0.58825282  0.55716665  0.32979167    -1.90200
Cd1637     Cd  0.62792138  0.56766285  0.34195731     1.59900
O1638       O  0.55262200  0.57683859  0.39541871    -0.79700
O1639       O  0.65407644  0.56236324  0.30291314    -0.78300
C1640       C  0.54707474  0.97105183  0.32690353     0.84200
C1641       C  0.55239845  0.57765493  0.25264983     0.83900
O1642       O  0.63211858  0.01212436  0.27985043    -0.77300
C1643       C  0.63033016  0.64410082  0.34032170     0.84700
O1644       O  0.56498584  0.97927794  0.30456558    -0.77400
C1645       C  0.54495912  0.60949797  0.38833252     0.84800
C1646       C  0.63216058  0.50540041  0.38973264     0.85100
O1647       O  0.60468930  0.50314463  0.39246786    -0.79800
C1648       C  0.76125053  0.75036558  0.26694692     0.04300
C1649       C  0.74563806  0.75285164  0.23771307    -0.11800
C1650       C  0.71576989  0.74771056  0.23746978     0.01800
C1651       C  0.70154384  0.73972453  0.26606612    -0.10400
C1652       C  0.71614004  0.73651547  0.29555506     0.04300
C1653       C  0.74636900  0.74226486  0.29603287    -0.09800
H1654       H  0.75679428  0.75750075  0.21512796     0.09900
H1655       H  0.67873793  0.73310015  0.26467186     0.07400
H1656       H  0.75834577  0.73981895  0.31850469     0.07300
C1657       C  0.65374218  0.67220593  0.33942818    -0.04100
C1658       C  0.68310694  0.66168117  0.34208640    -0.01300
C1659       C  0.70543099  0.68632299  0.33448851     0.03700
C1660       C  0.69869045  0.72100473  0.32279391    -0.04100
C1661       C  0.67016083  0.73366724  0.32726890    -0.01200
C1662       C  0.64760423  0.70913049  0.33467575     0.03700
C1663       C  0.69073469  0.62483011  0.35037465     0.38400
C1664       C  0.66380768  0.77140914  0.32122147     0.38400
C1665       C  0.61820456  0.72178813  0.33712178     0.36800
C1666       C  0.73518266  0.67535171  0.33794281     0.36800
N1667       N  0.59476286  0.73197471  0.33930920    -0.38000
N1668       N  0.75873995  0.66624540  0.34195800    -0.38000
N1669       N  0.65879011  0.80152253  0.31633177    -0.37500
N1670       N  0.69704416  0.59556438  0.35708765    -0.37500
C1671       C  0.38422606  0.92073715  0.44290805    -0.04100
C1672       C  0.37185736  0.91503718  0.47361787    -0.01300
C1673       C  0.34758793  0.93496937  0.48303576     0.03700
C1674       C  0.33681578  0.96284957  0.46297765    -0.04100
C1675       C  0.34855699  0.96786198  0.43193537    -0.01200
C1676       C  0.37163190  0.94602336  0.42150552     0.03700
C1677       C  0.38336242  0.88753564  0.49509023     0.38400
C1678       C  0.33752181  0.99627558  0.41130531     0.38400
C1679       C  0.38275204  0.94992491  0.38898206     0.36800
C1680       C  0.33195670  0.93046242  0.00651092     0.36800
N1681       N  0.39155426  0.95281518  0.36296300    -0.38000
N1682       N  0.31765460  0.92173585  0.02799906    -0.38000
N1683       N  0.32869362  0.01902000  0.39488831    -0.37500
N1684       N  0.38805857  0.86514424  0.00692202    -0.37500
C1685       C  0.38222926  0.76025219  0.33658775    -0.04100
C1686       C  0.35607642  0.78041162  0.33443682    -0.01300
C1687       C  0.33234534  0.76651736  0.31696936     0.03700
C1688       C  0.33424020  0.73263123  0.30186264    -0.04100
C1689       C  0.35763332  0.70996679  0.30890493    -0.01200
C1690       C  0.38184942  0.72369831  0.32586155     0.03700
C1691       C  0.35307696  0.81584482  0.34929318     0.38400
C1692       C  0.35709813  0.67303943  0.29696342     0.38400
C1693       C  0.40639546  0.70028315  0.33089898     0.36800
C1694       C  0.30668820  0.78827304  0.31226482     0.36800
N1695       N  0.42583773  0.68132318  0.33489353    -0.38000
N1696       N  0.28618719  0.80547717  0.30860671    -0.38000
N1697       N  0.35633778  0.64350075  0.28765057    -0.37500
N1698       N  0.35034486  0.84418874  0.36078518    -0.37500
C1699       C  0.38066553  0.00066047  0.09985282    -0.04100
C1700       C  0.35056790  0.99916366  0.10705192    -0.01300
C1701       C  0.33052188  0.01792853  0.08765802     0.03700
C1702       C  0.34023083  0.03827861  0.06106922    -0.04100
C1703       C  0.36971506  0.04834551  0.06055793    -0.01200
C1704       C  0.39012737  0.02861158  0.07888107     0.03700
C1705       C  0.33952007  0.97829543  0.13404850     0.38400
C1706       C  0.37911867  0.07599754  0.03805301     0.38400
C1707       C  0.42052307  0.03675037  0.07517234     0.36800
C1708       C  0.29994465  0.01467100  0.09436234     0.36800
N1709       N  0.44475557  0.04353820  0.07220662    -0.38000
N1710       N  0.27563916  0.01219723  0.10019709    -0.38000
N1711       N  0.38654771  0.09797968  0.01999352    -0.37500
N1712       N  0.33015198  0.96179591  0.15533050    -0.37500
C1713       C  0.38295074  0.80498722  0.16765500    -0.04100
C1714       C  0.35329363  0.81399753  0.16399365    -0.01300
C1715       C  0.33149169  0.78934659  0.17341386     0.03700
C1716       C  0.33896035  0.75547241  0.18644378    -0.04100
C1717       C  0.36787956  0.74385764  0.18321666    -0.01200
C1718       C  0.38997396  0.76892220  0.17547899     0.03700
C1719       C  0.34477209  0.84961656  0.15297164     0.38400
C1720       C  0.37492928  0.70650186  0.19017463     0.38400
C1721       C  0.41984936  0.75775148  0.17655806     0.36800
C1722       C  0.30151579  0.79982509  0.17099960     0.36800
N1723       N  0.44367780  0.74873628  0.17766427    -0.38000
N1724       N  0.27770991  0.80848149  0.16822219    -0.38000
N1725       N  0.38039493  0.67661648  0.19554403    -0.37500
N1726       N  0.33775921  0.87787442  0.14405181    -0.37500
C1727       C  0.69420969  0.44832497  0.44869561    -0.04100
C1728       C  0.66487015  0.43742659  0.45006742    -0.01300
C1729       C  0.64395731  0.45441231  0.43008711     0.03700
C1730       C  0.65277714  0.47960251  0.40625109    -0.04100
C1731       C  0.68280080  0.48137193  0.39912437    -0.00400
C1732       C  0.70328103  0.46799112  0.42131919     0.03700
C1733       C  0.66329361  0.91553109  0.47446483     0.38400
C1734       C  0.69334009  0.49788008  0.36956454     0.38400
C1735       C  0.73298981  0.47990369  0.41815346     0.36800
C1736       C  0.61928387  0.94614952  0.43414095     0.36800
N1737       N  0.75616309  0.49100336  0.41490267    -0.38000
N1738       N  0.59545418  0.93775800  0.43786084    -0.38000
N1739       N  0.70230061  0.51088481  0.34623487    -0.37500
N1740       N  0.65726854  0.89449484  0.49401217    -0.37500
C1741       C  0.69849133  0.74339887  0.20751549    -0.04100
C1742       C  0.69985389  0.71008513  0.19122893    -0.01300
C1743       C  0.67552062  0.69671462  0.17442013     0.03700
C1744       C  0.64947020  0.71712569  0.17333245    -0.04100
C1745       C  0.64971547  0.75265838  0.18643823    -0.01200
C1746       C  0.67432649  0.76575940  0.20307420     0.03700
C1747       C  0.72562758  0.68813472  0.19411025     0.38400
C1748       C  0.62430159  0.77522467  0.18486398     0.38400
C1749       C  0.67424942  0.80141136  0.21787411     0.36800
C1750       C  0.67766438  0.66122322  0.15948721     0.36800
N1751       N  0.67432505  0.82983821  0.22966923    -0.38000
N1752       N  0.67965342  0.63269107  0.14816673    -0.38000
N1753       N  0.60408813  0.79336262  0.18374038    -0.37500
N1754       N  0.74618531  0.67074131  0.19636896    -0.37500
C1755       C  0.64609787  0.56084785  0.06108607    -0.04100
C1756       C  0.65912315  0.56869428  0.03105970    -0.01300
C1757       C  0.68374045  0.54964892  0.02124281     0.03700
C1758       C  0.69467273  0.52104922  0.04033776    -0.04100
C1759       C  0.68243095  0.51402908  0.07080537    -0.01200
C1760       C  0.65853451  0.53433503  0.08145378     0.03700
C1761       C  0.64829511  0.59791875  0.01103089     0.38400
C1762       C  0.69414103  0.48545820  0.09079309     0.38400
C1763       C  0.64649023  0.52762047  0.11317996     0.36800
C1764       C  0.69721887  0.56461245  0.48881453     0.36800
N1765       N  0.63695674  0.52237138  0.13856709    -0.38000
N1766       N  0.70808464  0.57173402  0.46449392    -0.38000
N1767       N  0.70366961  0.46274418  0.10674391    -0.37500
N1768       N  0.63736427  0.62450568  0.49244291    -0.37500
C1769       C  0.29202105  0.75465566  0.48746247    -0.04100
C1770       C  0.31391390  0.72912875  0.49370889    -0.01300
C1771       C  0.34292749  0.73678270  0.48529480     0.03700
C1772       C  0.34986716  0.76927992  0.46898862    -0.04100
C1773       C  0.32784864  0.79557217  0.46472540    -0.01200
C1774       C  0.29946429  0.78860264  0.47486935     0.03700
C1775       C  0.30657652  0.69494971  0.50866555     0.38400
C1776       C  0.33362463  0.82979006  0.44893260     0.38400
C1777       C  0.27647863  0.82397252  0.96368635     0.36800
C1778       C  0.36522504  0.71063833  0.49238377     0.36800
N1779       N  0.25852522  0.84451061  0.95767017    -0.38000
N1780       N  0.38301839  0.68986787  0.49838817    -0.38000
N1781       N  0.33717154  0.85692906  0.43567319    -0.37500
N1782       N  0.30105170  0.66767113  0.52085011    -0.37500
C1783       C  0.20064010  0.70255754  0.43894657    -0.04100
C1784       C  0.20704037  0.66642992  0.43130870    -0.01300
C1785       C  0.18461243  0.64262371  0.42196828     0.03700
C1786       C  0.15567618  0.65510925  0.42077200    -0.04100
C1787       C  0.15041452  0.69246148  0.42295072    -0.01200
C1788       C  0.17335264  0.71632672  0.43017809     0.03700
C1789       C  0.23634553  0.65338389  0.43427806     0.38400
C1790       C  0.12144895  0.70618221  0.41865132     0.38400
C1791       C  0.16899037  0.75505071  0.42964543     0.36800
C1792       C  0.19145241  0.60491587  0.41623351     0.36800
N1793       N  0.16149786  0.79475532  0.93458288    -0.38000
N1794       N  0.19764585  0.57507422  0.41168160    -0.38000
N1795       N  0.09827477  0.71705680  0.41543691    -0.37500
N1796       N  0.25980382  0.64306482  0.43594521    -0.37500
C1797       C  0.24333557  0.01964480  0.50022718    -0.04100
C1798       C  0.22579361  0.98804910  0.49856634    -0.01300
C1799       C  0.19555580  0.99059450  0.49348811     0.03700
C1800       C  0.18221052  0.02481420  0.49149730    -0.04100
C1801       C  0.20119083  0.55058438  0.49799743    -0.01200
C1802       C  0.22954197  0.05365161  0.50137924     0.03700
C1803       C  0.23878814  0.95274087  0.50239313     0.38400
C1804       C  0.18792934  0.58595964  0.50093341     0.38400
C1805       C  0.24850748  0.58081001  0.50107299     0.36800
C1806       C  0.17861921  0.95790730  0.48873613     0.36800
N1807       N  0.26196933  0.60723358  0.50181063    -0.38000
N1808       N  0.16519685  0.93171222  0.48496715    -0.38000
N1809       N  0.17743360  0.61414426  0.50325804    -0.37500
N1810       N  0.24921687  0.92462012  0.50554996    -0.37500
C1811       C  0.74334313  0.00248648  0.26853732    -0.04100
C1812       C  0.73493973  0.03890775  0.26613805    -0.01300
C1813       C  0.70550955  0.04827748  0.26632907     0.03700
C1814       C  0.68385223  0.02136833  0.27091084    -0.04100
C1815       C  0.69227622  0.98452168  0.27064082    -0.01200
C1816       C  0.72187292  0.97522191  0.26936652     0.03700
C1817       C  0.75693155  0.06692993  0.26454159     0.38400
C1818       C  0.67081084  0.95597295  0.27289139     0.38400
C1819       C  0.73017409  0.93751486  0.26890876     0.36800
C1820       C  0.69777424  0.08588489  0.26162671     0.36800
N1821       N  0.73644700  0.90729666  0.26834545    -0.38000
N1822       N  0.69194500  0.11594613  0.25771968    -0.38000
N1823       N  0.65906181  0.43707524  0.28443714    -0.37500
N1824       N  0.77497370  0.08861840  0.26337710    -0.37500
C1825       C  0.88199270  0.90805823  0.33612675    -0.04100
C1826       C  0.88747636  0.94553315  0.33478369    -0.01300
C1827       C  0.86493763  0.96946987  0.32667222     0.03700
C1828       C  0.83689596  0.95591501  0.31958482    -0.04100
C1829       C  0.83041923  0.91979884  0.32754647    -0.01200
C1830       C  0.85292402  0.89559348  0.33477063     0.03700
C1831       C  0.91625597  0.95931568  0.34139057     0.38400
C1832       C  0.80087421  0.90681201  0.32619815     0.38400
C1833       C  0.84598643  0.85741372  0.33784206     0.36800
C1834       C  0.87096833  0.00774619  0.32291902     0.36800
N1835       N  0.83992252  0.82712143  0.34014712    -0.38000
N1836       N  0.87582428  0.03827653  0.31986273    -0.38000
N1837       N  0.77733540  0.89625440  0.32584712    -0.37500
N1838       N  0.93918065  0.97030272  0.34700964    -0.37500
C1839       C  0.85429452  0.76478002  0.26887814    -0.04100
C1840       C  0.83613200  0.79276154  0.25741622    -0.01300
C1841       C  0.80589178  0.78803261  0.25669000     0.03700
C1842       C  0.79336840  0.75485849  0.26635428    -0.04100
C1843       C  0.81166621  0.72559164  0.27386591    -0.01200
C1844       C  0.84190191  0.73061900  0.27575593     0.03700
C1845       C  0.84851077  0.82693244  0.24693410     0.38400
C1846       C  0.79954804  0.68986429  0.27866189     0.38400
C1847       C  0.85989524  0.70102709  0.28658617     0.36800
C1848       C  0.78766622  0.81778642  0.24670126     0.36800
N1849       N  0.87416506  0.67736255  0.29528488    -0.38000
N1850       N  0.77320806  0.84147535  0.23848573    -0.38000
N1851       N  0.79037453  0.66097749  0.28197137    -0.37500
N1852       N  0.85830367  0.85420982  0.23861739    -0.37500
C1853       C  0.29018943  0.45897335  0.23528483    -0.04100
C1854       C  0.30308931  0.42495673  0.24038335    -0.01300
C1855       C  0.33294189  0.92154276  0.24374311     0.03700
C1856       C  0.35050012  0.95073072  0.23337524    -0.04100
C1857       C  0.33841848  0.48588655  0.22917515    -0.01200
C1858       C  0.30820953  0.48976444  0.23219872     0.03700
C1859       C  0.28542502  0.39381143  0.24830725     0.38400
C1860       C  0.35624897  0.51745222  0.22299531     0.38400
C1861       C  0.29588855  0.52556005  0.23348575     0.36800
C1862       C  0.34587964  0.88689824  0.25131257     0.36800
N1863       N  0.28650842  0.55437484  0.23524667    -0.38000
N1864       N  0.35612372  0.85931919  0.25759815    -0.38000
N1865       N  0.37039135  0.54271311  0.21803196    -0.37500
N1866       N  0.27078847  0.87130725  0.26430305    -0.37500
C1867       C  0.19810645  0.46632354  0.29581199    -0.04100
C1868       C  0.19928031  0.50174847  0.30833466    -0.01300
C1869       C  0.17688418  0.51437321  0.32773936     0.03700
C1870       C  0.15444399  0.49066217  0.33739110    -0.04100
C1871       C  0.15445640  0.45431733  0.32699139    -0.01200
C1872       C  0.17620602  0.44223635  0.30585509     0.03700
C1873       C  0.22253084  0.52617639  0.29920909     0.38400
C1874       C  0.13211207  0.42967538  0.33776792     0.38400
C1875       C  0.17609551  0.40527598  0.29410352     0.36800
C1876       C  0.17588110  0.55270927  0.33552848     0.36800
N1877       N  0.18159398  0.87651714  0.29438175    -0.38000
N1878       N  0.17516640  0.58340325  0.34096391    -0.38000
N1879       N  0.11490823  0.90953492  0.35015559    -0.37500
N1880       N  0.24109859  0.54558172  0.29211344    -0.37500
C1881       C  0.15637417  0.73851944  0.09619567    -0.04100
C1882       C  0.18641068  0.73514442  0.10351345    -0.01300
C1883       C  0.20732594  0.74537356  0.08063008     0.03700
C1884       C  0.19872205  0.76244454  0.05179002    -0.04100
C1885       C  0.17002656  0.77512336  0.04937698    -0.01200
C1886       C  0.14856418  0.76189502  0.07054555     0.03700
C1887       C  0.19636106  0.72100514  0.13434482     0.38400
C1888       C  0.16255880  0.80055434  0.02406386     0.38400
C1889       C  0.11877094  0.77192554  0.06518680     0.36800
C1890       C  0.23730826  0.73608313  0.08612585     0.36800
N1891       N  0.09505983  0.78022198  0.06073253    -0.38000
N1892       N  0.26116731  0.72865939  0.09085488    -0.38000
N1893       N  0.15667527  0.82130880  0.00422030    -0.37500
N1894       N  0.20475350  0.70992340  0.15879121    -0.37500
C1895       C  0.15169107  0.55086641  0.16779674    -0.04100
C1896       C  0.18137437  0.56061202  0.16757327    -0.01300
C1897       C  0.20272274  0.53487887  0.17526537     0.03700
C1898       C  0.19468634  0.49928238  0.18386563    -0.04100
C1899       C  0.16582374  0.48812920  0.17736140    -0.01200
C1900       C  0.14431234  0.51393303  0.17007206     0.03700
C1901       C  0.19027335  0.59757933  0.16105312     0.38400
C1902       C  0.15812094  0.45016631  0.17983088     0.38400
C1903       C  0.11475817  0.50249073  0.16439662     0.36800
C1904       C  0.23276044  0.54576170  0.17479203     0.36800
N1905       N  0.09121067  0.49337591  0.15945547    -0.38000
N1906       N  0.25655805  0.55509868  0.17319346    -0.38000
N1907       N  0.15200757  0.41986263  0.18180102    -0.37500
N1908       N  0.19767636  0.62685392  0.15557760    -0.37500
C1909       C  0.24347068  0.71517092  0.23763844    -0.04100
C1910       C  0.22381256  0.74375658  0.23317119    -0.01300
C1911       C  0.19380324  0.73674252  0.23168670     0.03700
C1912       C  0.18324696  0.70088949  0.23449264    -0.04100
C1913       C  0.20283586  0.67304150  0.24270090    -0.01200
C1914       C  0.23273569  0.68012357  0.24398936     0.03700
C1915       C  0.23440048  0.78052768  0.23036902     0.38400
C1916       C  0.19226848  0.63677730  0.24944060     0.38400
C1917       C  0.25258323  0.65110749  0.25135032     0.36800
C1918       C  0.17412127  0.76628868  0.22559375     0.36800
N1919       N  0.26854411  0.62820493  0.25751775    -0.38000
N1920       N  0.15849784  0.79000040  0.22090696    -0.38000
N1921       N  0.18390477  0.60785799  0.25479088    -0.37500
N1922       N  0.24252384  0.81005899  0.22834137    -0.37500
C1923       C  0.74929708  0.71813939  0.03470523    -0.04100
C1924       C  0.72906212  0.74554563  0.02741025    -0.01300
C1925       C  0.69917315  0.74010891  0.03338452     0.03700
C1926       C  0.68921936  0.70722787  0.04692482    -0.04100
C1927       C  0.70972407  0.67943607  0.05297357    -0.01200
C1928       C  0.73930432  0.68498124  0.04702291     0.03700
C1929       C  0.73906866  0.78008295  0.01525301     0.38400
C1930       C  0.70098283  0.64468080  0.06591670     0.38400
C1931       C  0.75971327  0.65632314  0.05400371     0.36800
C1932       C  0.67903673  0.76912401  0.02718914     0.36800
N1933       N  0.77436639  0.63554250  0.55371952    -0.38000
N1934       N  0.66301430  0.79235737  0.02226689    -0.38000
N1935       N  0.69500979  0.61693618  0.07690374    -0.37500
N1936       N  0.74669101  0.80791707  0.00573581    -0.37500
C1937       C  0.83334111  0.73255647  0.45983372    -0.04100
C1938       C  0.83566186  0.76722581  0.44624187    -0.01300
C1939       C  0.85903962  0.77566175  0.42621069     0.03700
C1940       C  0.87888905  0.74858485  0.41708755    -0.04100
C1941       C  0.87532939  0.71306585  0.42865649    -0.01200
C1942       C  0.85282573  0.70520631  0.45047912     0.03700
C1943       C  0.81531373  0.79519750  0.45507263     0.38400
C1944       C  0.89503802  0.68499409  0.41871166     0.38400
C1945       C  0.85047475  0.66955884  0.46479309     0.36800
C1946       C  0.86400539  0.81319969  0.41755182     0.36800
N1947       N  0.84852210  0.64122970  0.47643395    -0.38000
N1948       N  0.86775505  0.84345366  0.41180502    -0.38000
N1949       N  0.91077560  0.66253005  0.41083542    -0.37500
N1950       N  0.79919298  0.81768184  0.46182463    -0.37500
C1951       C  0.83545850  0.99144379  0.20603776    -0.04100
C1952       C  0.86237726  0.00940450  0.20447765    -0.01300
C1953       C  0.88354074  0.99780203  0.18246439     0.03700
C1954       C  0.87749365  0.96870944  0.16100003    -0.04100
C1955       C  0.84877525  0.95415514  0.15997092    -0.01200
C1956       C  0.82799312  0.96582310  0.18218965     0.03700
C1957       C  0.86836558  0.03937487  0.22633191     0.38400
C1958       C  0.84010496  0.92597174  0.13715962     0.38400
C1959       C  0.79930156  0.94972849  0.18152509     0.36800
C1960       C  0.91145202  0.01574201  0.18249310     0.36800
N1961       N  0.77644003  0.93700867  0.18055831    -0.38000
N1962       N  0.93370509  0.03010642  0.18278402    -0.38000
N1963       N  0.83289040  0.90383453  0.11888578    -0.37500
N1964       N  0.87295871  0.06345828  0.24361169    -0.37500
C1965       C  0.85063364  0.73888116  0.08104854    -0.04100
C1966       C  0.87987588  0.72887337  0.07707310    -0.01300
C1967       C  0.90178683  0.75536688  0.08104875     0.03700
C1968       C  0.89466903  0.78936451  0.09438726    -0.04100
C1969       C  0.86778766  0.79185613  0.11064723    -0.01200
C1970       C  0.84512876  0.76783158  0.10236603     0.03700
C1971       C  0.88018540  0.69516641  0.56167877     0.38400
C1972       C  0.86332000  0.81883377  0.13565544     0.38400
C1973       C  0.81637662  0.77441189  0.11438693     0.36800
C1974       C  0.93080763  0.74789740  0.07040723     0.36800
N1975       N  0.79355748  0.77990769  0.12435562    -0.38000
N1976       N  0.95396315  0.74169881  0.06186062    -0.38000
N1977       N  0.85988151  0.83984183  0.15606439    -0.37500
N1978       N  0.88386241  0.66607496  0.55224746    -0.37500
C1979       C  0.85280980  0.95844078  0.02004782    -0.04100
C1980       C  0.83940089  0.48611262  0.01734482    -0.01300
C1981       C  0.80892610  0.45148771  0.48500801     0.03700
C1982       C  0.78995591  0.46250053  0.00869713    -0.04100
C1983       C  0.80140089  0.42715734  0.00789108    -0.01200
C1984       C  0.83139860  0.42141114  0.01028382     0.03700
C1985       C  0.86227470  0.94140153  0.45738816     0.38400
C1986       C  0.78212051  0.39613480  0.00735887     0.38400
C1987       C  0.84828679  0.98845469  0.07308424     0.36800
C1988       C  0.79825054  0.43996292  0.45362042     0.36800
N1989       N  0.85859991  0.00283526  0.09525720    -0.38000
N1990       N  0.79116477  0.42906798  0.42846099    -0.38000
N1991       N  0.76660757  0.37152738  0.00738671    -0.37500
N1992       N  0.87603244  0.93000230  0.43649119    -0.37500
C1993       C  0.03291897  0.58891000  0.59074464     0.04300
C1994       C  0.04363659  0.59292834  0.55886608    -0.11800
C1995       C  0.03731320  0.56710749  0.53469310     0.01800
C1996       C  0.01857248  0.53829669  0.54198424    -0.10400
C1997       C  0.00685087  0.53355741  0.57308331     0.04300
C1998       C  0.01479012  0.55863226  0.59769840    -0.09800
H1999       H  0.05885353  0.61444211  0.55356704     0.09900
H2000       H  0.01401039  0.51831518  0.52329845     0.07400
H2001       H  0.00679623  0.55477955  0.62198677     0.07300
O2002       O  0.97194777  0.92394891  0.50536628    -0.77300
C2003       C  0.88694589  0.94868135  0.52230335     0.83700
O2004       O  0.98793262  0.98485488  0.60723419    -0.78400
O2005       O  0.88864858  0.93555079  0.60577594    -0.79900
O2006       O  0.93669576  0.82185639  0.57312187    -0.79700
O2007       O  0.98615899  0.86859513  0.52119125    -0.78300
Zn2008     Zn  0.95055762  0.94925638  0.54085388     1.55700
O2009       O  0.89812414  0.85321921  0.58631749    -0.79700
Cd2010     Cd  0.96696894  0.86542695  0.56794049     1.59700
Cd2011     Cd  0.96122381  0.93781884  0.61677168     1.59600
O2012       O  0.99451476  0.85424420  0.60751802    -0.79700
O2013       O  0.94888624  0.91426376  0.57499515    -1.90200
Cd2014     Cd  0.90766685  0.90400221  0.57324268     1.59900
O2015       O  0.98143696  0.89587619  0.64410686    -0.79700
O2016       O  0.88703334  0.91573909  0.53058974    -0.78300
C2017       C  0.98985021  0.00219921  0.58037171     0.84200
C2018       C  0.98536516  0.89437843  0.50030755     0.83900
O2019       O  0.90964093  0.96804189  0.52655034    -0.77300
C2020       C  0.91085295  0.82320413  0.58378110     0.84700
O2021       O  0.97587922  0.99129541  0.55533828    -0.77400
C2022       C  0.99356735  0.86568446  0.63686525     0.84800
C2023       C  0.89641545  0.95256503  0.63099047     0.85100
O2024       O  0.92300224  0.95507823  0.63958161    -0.79800
C2025       C  0.77716956  0.72642387  0.52644553     0.04300
C2026       C  0.79559990  0.73025878  0.55379942    -0.11800
C2027       C  0.82556308  0.73511207  0.54978993     0.01800
C2028       C  0.84056864  0.73135510  0.02266501    -0.10400
C2029       C  0.82299496  0.72807338  0.99549405     0.04300
C2030       C  0.79300924  0.72505593  0.99910048    -0.09800
H2031       H  0.78651619  0.72937800  0.57785428     0.09900
H2032       H  0.86323433  0.73708470  0.01877339     0.07400
H2033       H  0.77917209  0.72371609  0.97790651     0.07300
C2034       C  0.00480550  0.84168413  0.66356642     0.04300
C2035       C  0.02256514  0.81127999  0.65680269    -0.11800
C2036       C  0.03026578  0.78656483  0.68154143     0.01800
C2037       C  0.01914474  0.79191620  0.71271492    -0.10400
C2038       C  0.00070690  0.82074823  0.71986086     0.04300
C2039       C  0.99432253  0.84611161  0.69551886    -0.09800
H2040       H  0.03025809  0.80678419  0.63246841     0.09900
H2041       H  0.02367610  0.77217505  0.73144459     0.07400
H2042       H  0.97925674  0.86756215  0.70083393     0.07300
O2043       O  0.06758733  0.67665542  0.74743109    -0.77300
C2044       C  0.15498748  0.68935271  0.72055510     0.83700
O2045       O  0.04551071  0.73420731  0.65063465    -0.78400
O2046       O  0.14333633  0.68954401  0.63192777    -0.79900
O2047       O  0.10816429  0.57977975  0.68681433    -0.79700
O2048       O  0.05274045  0.62112724  0.73285518    -0.78300
Zn2049     Zn  0.08972079  0.69966557  0.71072145     1.55700
O2050       O  0.13074149  0.60422836  0.64550103    -0.79700
Cd2051     Cd  0.07288079  0.61707636  0.68613362     1.59700
Cd2052     Cd  0.07168932  0.69027925  0.63572533     1.59600
O2053       O  0.04737708  0.60076755  0.64577385    -0.79700
O2054       O  0.08784159  0.66659727  0.67515326    -1.90200
Cd2055     Cd  0.12712720  0.65480645  0.66381200     1.59900
O2056       O  0.05208083  0.64616650  0.60978736    -0.79700
O2057       O  0.15393379  0.66153277  0.70243605    -0.78300
C2058       C  0.04874526  0.75393678  0.67609154     0.84200
C2059       C  0.05378294  0.64742895  0.75339126     0.83900
O2060       O  0.13258444  0.70904853  0.72449825    -0.77300
C2061       C  0.12822104  0.57872918  0.66558411     0.84700
O2062       O  0.06654890  0.74516541  0.69864616    -0.77400
C2063       C  0.04411283  0.61366173  0.61708409     0.84800
C2064       C  0.13298060  0.71300594  0.61311151     0.85100
O2065       O  0.10563570  0.71628477  0.61000352    -0.79800
C2066       C  0.25921588  0.47169220  0.73520666     0.04300
C2067       C  0.24366596  0.47931235  0.70637013    -0.11800
C2068       C  0.21346448  0.48429652  0.70730574     0.01800
C2069       C  0.19949749  0.48003997  0.73688358    -0.10400
C2070       C  0.21460516  0.47300521  0.76524027     0.04300
C2071       C  0.24447415  0.46898035  0.76464959    -0.09800
H2072       H  0.25513386  0.48223939  0.68376779     0.09900
H2073       H  0.17670845  0.48600897  0.73873836     0.07400
H2074       H  0.25630821  0.46510742  0.78710738     0.07300
C2075       C  0.03428372  0.62673990  0.84151740     0.04300
C2076       C  0.01629960  0.65686939  0.84801356    -0.11800
C2077       C  0.00792444  0.68069317  0.82291476     0.01800
C2078       C  0.01904829  0.67497266  0.79166157    -0.10400
C2079       C  0.03779646  0.64631032  0.78470610     0.04300
C2080       C  0.04461323  0.62166871  0.80953152    -0.09800
H2081       H  0.00871079  0.66154548  0.87234522     0.09900
H2082       H  0.01409506  0.69414844  0.77261900     0.07400
H2083       H  0.05981100  0.60024302  0.80456797     0.07300
O2084       O  0.90585972  0.75371097  0.77611875    -0.77300
C2085       C  0.98431137  0.81908846  0.75068225     0.83700
O2086       O  0.98944989  0.73109159  0.85449835    -0.78400
O2087       O  0.98763740  0.86700804  0.85776586    -0.79900
O2088       O  0.90164459  0.86192802  0.85064904    -0.79700
O2089       O  0.88330431  0.80060569  0.79762514    -0.78300
Zn2090     Zn  0.94796572  0.76599001  0.79190002     1.55700
O2091       O  0.92761735  0.88570106  0.81165170    -0.79700
Cd2092     Cd  0.90848138  0.81025920  0.83647699     1.59700
Cd2093     Cd  0.96427635  0.77701319  0.86806517     1.59600
O2094       O  0.89204022  0.77941840  0.87110463    -0.79700
O2095       O  0.94841885  0.79954445  0.82765507    -1.90200
Cd2096     Cd  0.96325922  0.84936666  0.81668548     1.59900
O2097       O  0.93013044  0.75982564  0.89876366    -0.79700
O2098       O  0.98505234  0.84513579  0.77139071    -0.78300
C2099       C  0.98855143  0.71263030  0.82804855     0.84200
C2100       C  0.88324025  0.77315548  0.77923766     0.83900
O2101       O  0.97035934  0.78981436  0.75596813    -0.77300
C2102       C  0.90552025  0.88667028  0.83010363     0.84700
O2103       O  0.97225146  0.72200531  0.80435869    -0.77400
C2104       C  0.90284667  0.76360970  0.89530309     0.84800
C2105       C  0.99253600  0.85304338  0.88577074     0.85100
O2106       O  0.98583784  0.82004395  0.89229803    -0.79800
C2107       C  0.77388250  0.00036472  0.75891065     0.04300
C2108       C  0.79000018  0.98918152  0.78642129    -0.11800
C2109       C  0.81987010  0.98210834  0.78374859     0.01800
C2110       C  0.83295050  0.98695699  0.75372290    -0.10400
C2111       C  0.81727444  0.99744126  0.72653413     0.04300
C2112       C  0.78779238  0.00428582  0.72904765    -0.09800
H2113       H  0.77926454  0.98543961  0.80935861     0.09900
H2114       H  0.85536026  0.97954120  0.75069975     0.07400
H2115       H  0.77551321  0.01139193  0.70760364     0.07300
C2116       C  0.00403666  0.87660703  0.91268463     0.04300
C2117       C  0.99332145  0.87148802  0.94444509    -0.11800
C2118       C  0.00052277  0.89571727  0.96960370     0.01800
C2119       C  0.02013722  0.92392062  0.96340199    -0.10400
C2120       C  0.03151795  0.92976886  0.93235018     0.04300
C2121       C  0.02273309  0.90643854  0.90677078    -0.09800
H2122       H  0.97755178  0.85038614  0.94898720     0.09900
H2123       H  0.02533938  0.94286594  0.98273385     0.07400
H2124       H  0.03050627  0.91132396  0.88250631     0.07300
O2125       O  0.13546945  0.00903558  0.97910209    -0.77300
C2126       C  0.05391990  0.57063204  0.00333928     0.83700
O2127       O  0.04842031  0.98146323  0.90200707    -0.78400
O2128       O  0.05013175  0.61711098  0.89642069    -0.79900
O2129       O  0.13370460  0.61136496  0.89985667    -0.79700
O2130       O  0.15380203  0.55853164  0.95840984    -0.78300
Zn2131     Zn  0.09147024  0.51788772  0.96356248     1.55700
O2132       O  0.11022058  0.63612030  0.94031486    -0.79700
Cd2133     Cd  0.12878371  0.56143140  0.91854721     1.59700
Cd2134     Cd  0.07316422  0.52793451  0.88743744     1.59600
O2135       O  0.14539937  0.52677281  0.88730415    -0.79700
O2136       O  0.08921269  0.55048848  0.92756231    -1.90200
Cd2137     Cd  0.07443861  0.60004223  0.93723136     1.59900
O2138       O  0.10706261  0.51039722  0.85782356    -0.79700
O2139       O  0.05314148  0.59636630  0.98250430    -0.78300
C2140       C  0.05085048  0.96197468  0.92758987     0.84200
C2141       C  0.15610129  0.03224203  0.97632889     0.83900
O2142       O  0.06813035  0.54164481  0.99855834    -0.77300
C2143       C  0.13115723  0.63657434  0.92027278     0.84700
O2144       O  0.06837802  0.97065200  0.95066913    -0.77400
C2145       C  0.13429745  0.51200931  0.86254862     0.84800
C2146       C  0.04547969  0.60309787  0.86833055     0.85100
O2147       O  0.05205657  0.57010628  0.86191272    -0.79800
C2148       C  0.26043714  0.75612407  0.99022739     0.04300
C2149       C  0.24490621  0.75584051  0.51765646    -0.11800
C2150       C  0.21520406  0.74762820  0.51942848     0.01800
C2151       C  0.20216058  0.72941660  0.49343403    -0.10400
C2152       C  0.21583811  0.73234445  0.96681363     0.04300
C2153       C  0.24530011  0.74025775  0.96412004    -0.09800
H2154       H  0.25555302  0.77059078  0.53700791     0.09900
H2155       H  0.17979755  0.72094795  0.49530174     0.07400
H2156       H  0.25650392  0.73413013  0.94184488     0.07300
C2157       C  0.50267538  0.85143665  0.58765347     0.04300
C2158       C  0.49245241  0.85529664  0.55543221    -0.11800
C2159       C  0.49982826  0.82999882  0.53127252     0.01800
C2160       C  0.51898646  0.80213955  0.53871058    -0.10400
C2161       C  0.52960003  0.79726274  0.57019367     0.04300
C2162       C  0.52085379  0.82158862  0.59485232    -0.09800
H2163       H  0.47699383  0.87618730  0.54973321     0.09900
H2164       H  0.52416784  0.78246606  0.52006784     0.07400
H2165       H  0.52810333  0.81724362  0.61948021     0.07300
O2166       O  0.63374825  0.71215628  0.53800377    -0.77300
C2167       C  0.54989243  0.65795325  0.50242290     0.83700
O2168       O  0.54232859  0.74537355  0.60183934    -0.78400
O2169       O  0.54523990  0.61222370  0.61095173    -0.79900
O2170       O  0.62808640  0.60590206  0.59752448    -0.79700
O2171       O  0.65245008  0.68459407  0.58122703    -0.78300
Zn2172     Zn  0.58905641  0.70730674  0.54556643     1.55700
O2173       O  0.59969687  0.59512496  0.55541505    -0.79700
Cd2174     Cd  0.61873398  0.65905736  0.60251100     1.59700
Cd2175     Cd  0.56665350  0.70172644  0.61807961     1.59600
O2176       O  0.61808335  0.67089363  0.65028018    -0.79700
O2177       O  0.58339554  0.67577670  0.58096132    -1.90200
Cd2178     Cd  0.56587345  0.62943573  0.56840096     1.59900
O2179       O  0.60194248  0.72494461  0.64219967    -0.79700
O2180       O  0.54301770  0.63607606  0.52511614    -0.78300
C2181       C  0.54735001  0.76441571  0.57664233     0.84200
C2182       C  0.65562664  0.70148380  0.55471016     0.83900
O2183       O  0.56827078  0.68361268  0.50676049    -0.77300
C2184       C  0.62260098  0.58887397  0.57161332     0.84700
O2185       O  0.56605234  0.75458439  0.55548017    -0.77400
C2186       C  0.62114723  0.70451003  0.65410938     0.84800
C2187       C  0.54165487  0.62653535  0.63908535     0.85100
O2188       O  0.54772519  0.65987093  0.64525734    -0.79800
C2189       C  0.75737952  0.46910569  0.50570557     0.04300
C2190       C  0.74263943  0.49726010  0.52245940    -0.11800
C2191       C  0.71235876  0.49922510  0.52189386     0.01800
C2192       C  0.69779558  0.47467053  0.99904467    -0.10400
C2193       C  0.71270244  0.45624489  0.97503711     0.04300
C2194       C  0.74271723  0.45195856  0.97874445    -0.09800
H2195       H  0.75434460  0.51797912  0.53570268     0.09900
H2196       H  0.67488167  0.47942003  0.99605069     0.07400
H2197       H  0.75458180  0.43740545  0.96040345     0.07300
C2198       C  0.53199819  0.60275255  0.66601125     0.04300
C2199       C  0.54327832  0.60795114  0.69768717    -0.11800
C2200       C  0.53775792  0.58251706  0.72220143     0.01800
C2201       C  0.51941769  0.55292986  0.71525257    -0.10400
C2202       C  0.50762509  0.54748371  0.68411833     0.04300
C2203       C  0.51453222  0.57211813  0.65945949    -0.09800
H2204       H  0.55815519  0.63005475  0.70254095     0.09900
H2205       H  0.51527882  0.53305665  0.73395839     0.07400
H2206       H  0.50614212  0.56757036  0.63520911     0.07300
O2207       O  0.40418704  0.96836592  0.72272694    -0.77300
C2208       C  0.48360508  0.90790835  0.75068968     0.83700
O2209       O  0.49249125  0.99480395  0.65130714    -0.78400
O2210       O  0.48773896  0.86201996  0.64247953    -0.79900
O2211       O  0.40366478  0.86238262  0.64532603    -0.79700
O2212       O  0.38358671  0.91987848  0.70021475    -0.78300
Zn2213     Zn  0.44697275  0.95983658  0.70894481     1.55700
O2214       O  0.42792334  0.84091257  0.68702829    -0.79700
Cd2215     Cd  0.40921850  0.91421525  0.66099462     1.59700
Cd2216     Cd  0.46501186  0.95195627  0.63471775     1.59600
O2217       O  0.39298139  0.95000735  0.62937041    -0.79700
O2218       O  0.44863239  0.92693956  0.67308431    -1.90200
Cd2219     Cd  0.46368561  0.87777915  0.68366845     1.59900
O2220       O  0.43077496  0.98036921  0.61150600    -0.79700
O2221       O  0.48519212  0.88222328  0.72967700    -0.78300
C2222       C  0.48939486  0.01431617  0.67686853     0.84200
C2223       C  0.38235237  0.94723116  0.71875087     0.83900
O2224       O  0.46905866  0.93647219  0.74531047    -0.77300
C2225       C  0.40658374  0.83866914  0.66715081     0.84700
O2226       O  0.47093909  0.00567721  0.69858721    -0.77400
C2227       C  0.40339806  0.97621568  0.61355096     0.84800
C2228       C  0.49116990  0.87558459  0.61407141     0.85100
O2229       O  0.48357986  0.90833152  0.60731220    -0.79800
C2230       C  0.27480402  0.72700224  0.74444687     0.04300
C2231       C  0.29035056  0.73881554  0.71686831    -0.11800
C2232       C  0.32006219  0.74736356  0.71959055     0.01800
C2233       C  0.33345242  0.74391620  0.74966122    -0.10400
C2234       C  0.31842948  0.73272000  0.77689937     0.04300
C2235       C  0.28908119  0.72426919  0.77449997    -0.09800
H2236       H  0.27934766  0.74173176  0.69379145     0.09900
H2237       H  0.35580508  0.75237174  0.75249799     0.07400
H2238       H  0.27727242  0.71653941  0.79595635     0.07300
C2239       C  0.53415379  0.64003617  0.91541014     0.04300
C2240       C  0.51607565  0.67004774  0.90822328    -0.11800
C2241       C  0.50723703  0.69424627  0.93298524     0.01800
C2242       C  0.51793085  0.68912824  0.96454441    -0.10400
C2243       C  0.53672680  0.66077759  0.97195881     0.04300
C2244       C  0.54404886  0.63575652  0.94765720    -0.09800
H2245       H  0.50880618  0.67444147  0.88358771     0.09900
H2246       H  0.51266743  0.70850635  0.98336402     0.07400
H2247       H  0.55913374  0.61445636  0.95341388     0.07300
O2248       O  0.46905654  0.80359259  0.99747064    -0.77300
C2249       C  0.37977476  0.78610012  0.95544840     0.83700
O2250       O  0.49227444  0.74601346  0.90171022    -0.78400
O2251       O  0.40947808  0.81814353  0.85854111    -0.79900
O2252       O  0.43659247  0.89881660  0.94821228    -0.79700
O2253       O  0.49259222  0.85283514  0.97974973    -0.78300
Zn2254     Zn  0.44662085  0.78166043  0.95953860     1.55700
O2255       O  0.40433525  0.88425469  0.91038619    -0.79700
Cd2256     Cd  0.46909168  0.86129528  0.93661948     1.59700
Cd2257     Cd  0.46642822  0.78953855  0.88681582     1.59600
O2258       O  0.49038351  0.87780251  0.89407994    -0.79700
O2259       O  0.45040532  0.81506673  0.92459930    -1.90200
Cd2260     Cd  0.41350823  0.83100243  0.90584586     1.59900
O2261       O  0.48502508  0.83129994  0.85904659    -0.79700
O2262       O  0.38158471  0.80502208  0.92991656    -0.78300
C2263       C  0.48846600  0.72647453  0.92691207     0.84200
C2264       C  0.48733658  0.82929427  0.00172712     0.83900
O2265       O  0.40254430  0.77463836  0.97005363    -0.77300
C2266       C  0.41279482  0.90444074  0.93334560     0.84700
O2267       O  0.46992108  0.73527119  0.94851926    -0.77400
C2268       C  0.49273138  0.86403278  0.86555873     0.84800
C2269       C  0.40903869  0.78439512  0.85419614     0.85100
O2270       O  0.43029362  0.76605718  0.86450292    -0.79800
C2271       C  0.27952183  0.02261102  0.99905821     0.04300
C2272       C  0.29231290  0.03430994  0.52525406    -0.11800
C2273       C  0.32250307  0.03016623  0.52689127     0.01800
C2274       C  0.33614982  0.01176343  0.50192143    -0.10400
C2275       C  0.32565493  0.00071998  0.97885083     0.04300
C2276       C  0.29555072  0.00337568  0.97565090    -0.09800
H2277       H  0.28146057  0.04869461  0.54442690     0.09900
H2278       H  0.35919602  0.00707554  0.50340643     0.07400
H2279       H  0.28465172  0.98937573  0.95596154     0.07300
C2280       C  0.50317064  0.88770170  0.83874670     0.04300
C2281       C  0.52052604  0.91843887  0.84565034    -0.11800
C2282       C  0.52839761  0.94260057  0.82093484     0.01800
C2283       C  0.51796321  0.93644446  0.78935076    -0.10400
C2284       C  0.49975873  0.90698743  0.78196116     0.04300
C2285       C  0.49305029  0.88209821  0.80659430    -0.09800
H2286       H  0.52808212  0.92342694  0.87016412     0.09900
H2287       H  0.52287253  0.95591134  0.77053219     0.07400
H2288       H  0.47816446  0.86012263  0.80132861     0.07300
O2289       O  0.56971055  0.55384584  0.75816329    -0.77300
C2290       C  0.65500425  0.03233614  0.78549239     0.83700
O2291       O  0.54363018  0.99470908  0.85223488    -0.78400
O2292       O  0.64458748  0.53961903  0.87438428    -0.79900
O2293       O  0.60948059  0.64974260  0.81917584    -0.79700
O2294       O  0.55278000  0.60764024  0.77412625    -0.78300
Zn2295     Zn  0.59080206  0.53081075  0.79550510     1.55700
O2296       O  0.63228334  0.62644256  0.86107839    -0.79700
Cd2297     Cd  0.57381085  0.61267540  0.82038589     1.59700
Cd2298     Cd  0.57257224  0.53935717  0.86951277     1.59600
O2299       O  0.54873964  0.62868762  0.86057509    -0.79700
O2300       O  0.58894459  0.56366646  0.83105148    -1.90200
Cd2301     Cd  0.62839497  0.57552439  0.84324186     1.59900
O2302       O  0.55404807  0.58333078  0.89645539    -0.79700
O2303       O  0.65516636  0.56846851  0.80495077    -0.78300
C2304       C  0.54721857  0.97470353  0.82709951     0.84200
C2305       C  0.55460327  0.58202659  0.75304694     0.83900
O2306       O  0.63158164  0.01477046  0.77997206    -0.77300
C2307       C  0.62996484  0.65123147  0.84022879     0.84700
O2308       O  0.56618832  0.98223819  0.80579406    -0.77400
C2309       C  0.54576990  0.61568459  0.88922108     0.84800
C2310       C  0.63406106  0.51336077  0.88988382     0.85100
O2311       O  0.60663524  0.50979917  0.89221619    -0.79800
C2312       C  0.76215704  0.74888763  0.75954823     0.04300
C2313       C  0.74663804  0.75154719  0.73029073    -0.11800
C2314       C  0.71665513  0.74781827  0.73018915     0.01800
C2315       C  0.70226296  0.74080883  0.75889204    -0.10400
C2316       C  0.71682321  0.73757554  0.78840837     0.04300
C2317       C  0.74715196  0.74211593  0.78875872    -0.09800
H2318       H  0.75789726  0.75550356  0.70766534     0.09900
H2319       H  0.67929830  0.73510962  0.75761517     0.07400
H2320       H  0.75908442  0.73999983  0.81128415     0.07300
C2321       C  0.65367800  0.67878084  0.83809469    -0.04100
C2322       C  0.68288842  0.66798680  0.84179669    -0.01300
C2323       C  0.70543023  0.69022899  0.83027736     0.03700
C2324       C  0.69906683  0.72396093  0.81617775    -0.04100
C2325       C  0.67092442  0.73803657  0.82041819    -0.01200
C2326       C  0.64803630  0.71500858  0.82986112     0.03700
C2327       C  0.69007674  0.63317697  0.85567880     0.38400
C2328       C  0.66521390  0.77542674  0.81218689     0.38400
C2329       C  0.61876502  0.72840961  0.83070927     0.36800
C2330       C  0.73475936  0.67706185  0.83134371     0.36800
N2331       N  0.59539036  0.73910055  0.83147984    -0.38000
N2332       N  0.75800337  0.66605924  0.83303016    -0.38000
N2333       N  0.66068624  0.80525701  0.80560044    -0.37500
N2334       N  0.69602420  0.60573935  0.86722168    -0.37500
C2335       C  0.39178316  0.93111608  0.94529450    -0.04100
C2336       C  0.37464800  0.92138226  0.97201237    -0.01300
C2337       C  0.34991719  0.94143508  0.97954646     0.03700
C2338       C  0.34324607  0.97314561  0.96204671    -0.04100
C2339       C  0.36044954  0.98306136  0.93540407    -0.01200
C2340       C  0.38430432  0.96159903  0.92658826     0.03700
C2341       C  0.38211377  0.89006881  0.99143328     0.38400
C2342       C  0.35402671  0.01587861  0.91776015     0.38400
C2343       C  0.40180112  0.97148048  0.89902068     0.36800
C2344       C  0.33433809  0.92801627  0.51421075     0.36800
N2345       N  0.41590794  0.97941337  0.87712694    -0.38000
N2346       N  0.32373729  0.92258473  0.53902510    -0.38000
N2347       N  0.34886272  0.04207814  0.90367156    -0.37500
N2348       N  0.39251969  0.86560162  0.51216656    -0.37500
C2349       C  0.38264505  0.76673543  0.84001335    -0.04100
C2350       C  0.35572245  0.78532334  0.83957028    -0.01300
C2351       C  0.33147248  0.76967519  0.82421754     0.03700
C2352       C  0.33409027  0.73652353  0.80791984    -0.04100
C2353       C  0.35909874  0.71572126  0.81230940    -0.01200
C2354       C  0.38348728  0.73077913  0.82793069     0.03700
C2355       C  0.35269550  0.82143214  0.85300460     0.38400
C2356       C  0.36053885  0.68014106  0.79752667     0.38400
C2357       C  0.40986227  0.70996419  0.82898370     0.36800
C2358       C  0.30450511  0.78936842  0.82214154     0.36800
N2359       N  0.43091326  0.69336014  0.82969230    -0.38000
N2360       N  0.28297594  0.80491283  0.82051047    -0.38000
N2361       N  0.36169176  0.65180358  0.78566969    -0.37500
N2362       N  0.35001556  0.85050493  0.86293445    -0.37500
C2363       C  0.38217244  0.00161980  0.59776699    -0.04100
C2364       C  0.35226988  0.99909281  0.60551390    -0.01300
C2365       C  0.33127514  0.01395703  0.58481326     0.03700
C2366       C  0.33982278  0.03398226  0.55748610    -0.04100
C2367       C  0.36907896  0.04506185  0.55546409    -0.01200
C2368       C  0.39042827  0.02773567  0.57447603     0.03700
C2369       C  0.34224421  0.98048147  0.63421450     0.38400
C2370       C  0.37734831  0.07122328  0.53105557     0.38400
C2371       C  0.42055969  0.03602999  0.56889684     0.36800
C2372       C  0.30111930  0.00502612  0.59014780     0.36800
N2373       N  0.44457515  0.04286346  0.56432803    -0.38000
N2374       N  0.27721430  0.99749533  0.59461763    -0.38000
N2375       N  0.38389006  0.09199968  0.51149015    -0.37500
N2376       N  0.33327770  0.96578920  0.65669790    -0.37500
C2377       C  0.38277716  0.81151046  0.67178625    -0.04100
C2378       C  0.35359415  0.82304022  0.67183493    -0.01300
C2379       C  0.33152311  0.80015017  0.68358844     0.03700
C2380       C  0.33801979  0.76481108  0.69385117    -0.04100
C2381       C  0.36606080  0.75127885  0.68793377    -0.01200
C2382       C  0.38857765  0.77482148  0.67818653     0.03700
C2383       C  0.34606320  0.85915691  0.66144024     0.38400
C2384       C  0.37196019  0.71339356  0.69383778     0.38400
C2385       C  0.41766267  0.76132347  0.67489160     0.36800
C2386       C  0.30262701  0.81418362  0.68733103     0.36800
N2387       N  0.44087579  0.75050929  0.67219440    -0.38000
N2388       N  0.27969040  0.82586432  0.68994375    -0.38000
N2389       N  0.37651914  0.68310085  0.69840442    -0.37500
N2390       N  0.33960128  0.88765112  0.65267885    -0.37500
C2391       C  0.69678797  0.45150822  0.94362052    -0.04100
C2392       C  0.66751807  0.44048360  0.94452442    -0.01300
C2393       C  0.64650047  0.45941373  0.92634866     0.03700
C2394       C  0.65518738  0.48711007  0.90475987    -0.04100
C2395       C  0.68527963  0.48974301  0.89748193    -0.00400
C2396       C  0.70587335  0.47229948  0.91708901     0.03700
C2397       C  0.65429197  0.91859808  0.98341488     0.38400
C2398       C  0.69605026  0.51129396  0.87081679     0.38400
C2399       C  0.73637752  0.47879116  0.91157755     0.36800
C2400       C  0.61163290  0.94922812  0.94116027     0.36800
N2401       N  0.76060095  0.48418507  0.90688387    -0.38000
N2402       N  0.58745143  0.94328311  0.94558699    -0.38000
N2403       N  0.70574386  0.52841940  0.85014480    -0.37500
N2404       N  0.64733521  0.90142583  0.00543541    -0.37500
C2405       C  0.69929842  0.74354495  0.70035867    -0.04100
C2406       C  0.69872774  0.70917324  0.68587741    -0.01300
C2407       C  0.67353893  0.69670192  0.67025710     0.03700
C2408       C  0.64856249  0.71903711  0.66859644    -0.04100
C2409       C  0.65083105  0.75538354  0.67956739    -0.01200
C2410       C  0.67635560  0.76758400  0.69495998     0.03700
C2411       C  0.72322027  0.68522388  0.68989493     0.38400
C2412       C  0.62661129  0.77985829  0.67710793     0.38400
C2413       C  0.67851544  0.80424090  0.70743054     0.36800
C2414       C  0.67363938  0.66011439  0.65735418     0.36800
N2415       N  0.68036649  0.83352545  0.71722509    -0.38000
N2416       N  0.67393489  0.63071407  0.64769201    -0.38000
N2417       N  0.60736452  0.79951980  0.67527944    -0.37500
N2418       N  0.74268299  0.66613114  0.69314995    -0.37500
C2419       C  0.64535981  0.56495070  0.55884551    -0.04100
C2420       C  0.65853282  0.57363161  0.52904939    -0.01300
C2421       C  0.68369734  0.55552953  0.51935827     0.03700
C2422       C  0.69510966  0.52730563  0.53844398    -0.04100
C2423       C  0.68218127  0.51897306  0.56838224    -0.01200
C2424       C  0.65771613  0.53816844  0.57881967     0.03700
C2425       C  0.64677021  0.60199305  0.50872274     0.38400
C2426       C  0.69311042  0.48922228  0.58756127     0.38400
C2427       C  0.64452871  0.52947332  0.60960033     0.36800
C2428       C  0.69754656  0.55871990  0.99081837     0.36800
N2429       N  0.63387127  0.52267945  0.63411224    -0.38000
N2430       N  0.70861674  0.56584485  0.96661352    -0.38000
N2431       N  0.70169076  0.46537381  0.60284118    -0.37500
N2432       N  0.63975478  0.62131445  0.99515834    -0.37500
C2433       C  0.29151557  0.76519006  0.98600076    -0.04100
C2434       C  0.31329896  0.73982968  0.99312240    -0.01300
C2435       C  0.34228744  0.74656181  0.98397411     0.03700
C2436       C  0.34981345  0.77915899  0.96803446    -0.04100
C2437       C  0.32768496  0.80513528  0.96232750    -0.01200
C2438       C  0.29892961  0.79796351  0.97110724     0.03700
C2439       C  0.30572112  0.70642720  0.00931859     0.38400
C2440       C  0.33368403  0.83934186  0.94654566     0.38400
C2441       C  0.27751998  0.81625929  0.47172273     0.36800
C2442       C  0.36374737  0.71879722  0.98906803     0.36800
N2443       N  0.26003490  0.83831265  0.46963397    -0.38000
N2444       N  0.38075076  0.69643769  0.99296119    -0.38000
N2445       N  0.33760236  0.86652002  0.93345264    -0.37500
N2446       N  0.29982540  0.67985496  0.02249625    -0.37500
C2447       C  0.19882733  0.71249617  0.94168321    -0.04100
C2448       C  0.20587897  0.67650742  0.93412764    -0.01300
C2449       C  0.18393881  0.65206088  0.92465969     0.03700
C2450       C  0.15480702  0.66370614  0.92294723    -0.04100
C2451       C  0.14884364  0.70091397  0.92521280    -0.01200
C2452       C  0.17115823  0.72542808  0.93332154     0.03700
C2453       C  0.23534992  0.66411848  0.93755357     0.38400
C2454       C  0.11982270  0.71389175  0.91966999     0.38400
C2455       C  0.16566534  0.76394738  0.93432432     0.36800
C2456       C  0.19148203  0.61453157  0.91909137     0.36800
N2457       N  0.16572485  0.78599390  0.42828827    -0.38000
N2458       N  0.19815185  0.58484244  0.91461653    -0.38000
N2459       N  0.09667055  0.72433130  0.91524635    -0.37500
N2460       N  0.25893493  0.65434692  0.93966636    -0.37500
C2461       C  0.24705207  0.02417367  0.99729588    -0.04100
C2462       C  0.22999940  0.99219596  0.99525525    -0.01300
C2463       C  0.19951964  0.99410727  0.99208299     0.03700
C2464       C  0.18561217  0.02801526  0.99120604    -0.04100
C2465       C  0.20215108  0.55786646  0.99965511    -0.01200
C2466       C  0.23284694  0.05782340  0.99885747     0.03700
C2467       C  0.24374508  0.95711988  0.99608335     0.38400
C2468       C  0.18887594  0.59315271  0.00309853     0.38400
C2469       C  0.24964635  0.58798347  0.00346638     0.36800
C2470       C  0.18272450  0.96108182  0.98897274     0.36800
N2471       N  0.26336636  0.61419876  0.00456980    -0.38000
N2472       N  0.16942929  0.93457164  0.98683980    -0.38000
N2473       N  0.17843156  0.62130330  0.00598781    -0.37500
N2474       N  0.25466071  0.92908425  0.99649205    -0.37500
C2475       C  0.74222940  0.00745252  0.76072061    -0.04100
C2476       C  0.73170638  0.04285503  0.75635474    -0.01300
C2477       C  0.70221536  0.05029590  0.76083939     0.03700
C2478       C  0.68287709  0.02243754  0.77004397    -0.04100
C2479       C  0.69278189  0.98631286  0.77048880    -0.01200
C2480       C  0.72229713  0.97887210  0.76526166     0.03700
C2481       C  0.75124119  0.07173747  0.74716849     0.38400
C2482       C  0.67324109  0.95701261  0.77866391     0.38400
C2483       C  0.73193317  0.94175942  0.76316849     0.36800
C2484       C  0.69179988  0.08690092  0.75635930     0.36800
N2485       N  0.73930631  0.91206386  0.76068343    -0.38000
N2486       N  0.68351848  0.11607151  0.75273015    -0.38000
N2487       N  0.65639651  0.44144801  0.80196720    -0.37500
N2488       N  0.76679353  0.09455536  0.73920818    -0.37500
C2489       C  0.88228438  0.91432213  0.82615286    -0.04100
C2490       C  0.88881187  0.95134706  0.82209418    -0.01300
C2491       C  0.86659329  0.97605387  0.81450184     0.03700
C2492       C  0.83795604  0.96365911  0.80899401    -0.04100
C2493       C  0.83081318  0.92809613  0.81826214    -0.01200
C2494       C  0.85279166  0.90333822  0.82624564     0.03700
C2495       C  0.91834318  0.96396966  0.82533507     0.38400
C2496       C  0.80095103  0.91630821  0.81845750     0.38400
C2497       C  0.84471375  0.86592424  0.83212070     0.36800
C2498       C  0.87321871  0.01419686  0.81087389     0.36800
N2499       N  0.83777239  0.83627861  0.83676951    -0.38000
N2500       N  0.87843940  0.04469406  0.80828341    -0.38000
N2501       N  0.77719957  0.90665819  0.81950748    -0.37500
N2502       N  0.94194018  0.97399956  0.82792121    -0.37500
C2503       C  0.85482665  0.76380973  0.76406326    -0.04100
C2504       C  0.83666615  0.79233507  0.75378629    -0.01300
C2505       C  0.80656644  0.78714250  0.75155409     0.03700
C2506       C  0.79421112  0.75327597  0.75915435    -0.04100
C2507       C  0.81256790  0.72368827  0.76535591    -0.01200
C2508       C  0.84279882  0.72885018  0.76771651     0.03700
C2509       C  0.84887351  0.82768868  0.74672248     0.38400
C2510       C  0.80037272  0.68787468  0.76922624     0.38400
C2511       C  0.86120713  0.69851343  0.77549585     0.36800
C2512       C  0.78819150  0.81717447  0.74265505     0.36800
N2513       N  0.87583878  0.67416548  0.78146680    -0.38000
N2514       N  0.77348904  0.84099916  0.73537272    -0.38000
N2515       N  0.79083770  0.65911857  0.77211647    -0.37500
N2516       N  0.85850948  0.85594919  0.74124789    -0.37500
C2517       C  0.29113932  0.46741301  0.73516747    -0.04100
C2518       C  0.30324514  0.43299667  0.74004250    -0.01300
C2519       C  0.33687230  0.92592048  0.74552559     0.03700
C2520       C  0.35357202  0.95487692  0.73311244    -0.04100
C2521       C  0.33969643  0.49288047  0.72844154    -0.01200
C2522       C  0.30957700  0.49759238  0.73119393     0.03700
C2523       C  0.28475170  0.40249165  0.74782634     0.38400
C2524       C  0.35792373  0.52389360  0.72145719     0.38400
C2525       C  0.29755146  0.53355949  0.72993886     0.36800
C2526       C  0.35072148  0.89221304  0.75434921     0.36800
N2527       N  0.28815961  0.56241402  0.72917710    -0.38000
N2528       N  0.36168014  0.86533448  0.76148504    -0.38000
N2529       N  0.37233712  0.54869605  0.71570740    -0.37500
N2530       N  0.27666051  0.87496914  0.77081014    -0.37500
C2531       C  0.19872240  0.47926036  0.79535096    -0.04100
C2532       C  0.19818083  0.51494859  0.80728883    -0.01300
C2533       C  0.17582474  0.52575783  0.82760836     0.03700
C2534       C  0.15485307  0.50033933  0.83784180    -0.04100
C2535       C  0.15590010  0.46429227  0.82689371    -0.01200
C2536       C  0.17775411  0.45383329  0.80532387     0.03700
C2537       C  0.21942501  0.54136159  0.79663083     0.38400
C2538       C  0.13441948  0.43831148  0.83741605     0.38400
C2539       C  0.17819124  0.41739524  0.79230026     0.36800
C2540       C  0.17331899  0.56380901  0.83609869     0.36800
N2541       N  0.18492932  0.87834620  0.79648446    -0.38000
N2542       N  0.17129429  0.59421351  0.84232120    -0.38000
N2543       N  0.12207344  0.91128775  0.85738329    -0.37500
N2544       N  0.23629687  0.56245031  0.78819831    -0.37500
C2545       C  0.15434698  0.73513434  0.59429486    -0.04100
C2546       C  0.18419025  0.73369885  0.60266449    -0.01300
C2547       C  0.20533383  0.74113369  0.57926742     0.03700
C2548       C  0.19693156  0.75419562  0.54863129    -0.04100
C2549       C  0.16804252  0.76585834  0.54446927    -0.01200
C2550       C  0.14650748  0.75498413  0.56649642     0.03700
C2551       C  0.19355440  0.72449182  0.63520088     0.38400
C2552       C  0.16039075  0.78820950  0.51701786     0.38400
C2553       C  0.11662978  0.76390306  0.56008822     0.36800
C2554       C  0.23525592  0.73304173  0.58647677     0.36800
N2555       N  0.09282573  0.77131006  0.55498860    -0.38000
N2556       N  0.25904472  0.72661539  0.59269071    -0.38000
N2557       N  0.15396433  0.80663077  0.49560728    -0.37500
N2558       N  0.20148635  0.71741277  0.66101006    -0.37500
C2559       C  0.15115010  0.55045938  0.66607707    -0.04100
C2560       C  0.18060735  0.56086949  0.66306291    -0.01300
C2561       C  0.20272990  0.53606614  0.67022122     0.03700
C2562       C  0.19568828  0.50092145  0.68082717    -0.04100
C2563       C  0.16688420  0.48856354  0.67644360    -0.01200
C2564       C  0.14450152  0.51353825  0.67053851     0.03700
C2565       C  0.18860520  0.59785227  0.65520876     0.38400
C2566       C  0.16013216  0.45064769  0.68156077     0.38400
C2567       C  0.11473960  0.50137699  0.66985965     0.36800
C2568       C  0.23255327  0.54780487  0.66863230     0.36800
N2569       N  0.09098416  0.49160150  0.66935997    -0.38000
N2570       N  0.25620061  0.55764802  0.66665689    -0.38000
N2571       N  0.15484866  0.42039991  0.68576982    -0.37500
N2572       N  0.19526936  0.62719067  0.64886580    -0.37500
C2573       C  0.24338714  0.71783976  0.74243683    -0.04100
C2574       C  0.22254915  0.74528999  0.73971660    -0.01300
C2575       C  0.19300792  0.73638435  0.73558172     0.03700
C2576       C  0.18395566  0.69967484  0.73440387    -0.04100
C2577       C  0.20465477  0.67243134  0.74096225    -0.01200
C2578       C  0.23410990  0.68155968  0.74492137     0.03700
C2579       C  0.23142952  0.78284810  0.74194447     0.38400
C2580       C  0.19580337  0.63478275  0.74337926     0.38400
C2581       C  0.25506479  0.65360455  0.75156646     0.36800
C2582       C  0.17242715  0.76520909  0.73065280     0.36800
N2583       N  0.27207077  0.63181646  0.75741341    -0.38000
N2584       N  0.15610990  0.78834816  0.72674171    -0.38000
N2585       N  0.18869613  0.60478765  0.74512051    -0.37500
N2586       N  0.23818923  0.81291375  0.74422334    -0.37500
C2587       C  0.74569052  0.71966819  0.53080888    -0.04100
C2588       C  0.72481932  0.74572589  0.52216772    -0.01300
C2589       C  0.69509549  0.73904866  0.52774055     0.03700
C2590       C  0.68615566  0.70704060  0.54361523    -0.04100
C2591       C  0.70732537  0.68036440  0.55079746    -0.01200
C2592       C  0.73660841  0.68644390  0.54373861     0.03700
C2593       C  0.73395458  0.78001429  0.50865420     0.38400
C2594       C  0.69963664  0.64624886  0.56576598     0.38400
C2595       C  0.75760722  0.65809962  0.54944336     0.36800
C2596       C  0.67397399  0.76559496  0.51782889     0.36800
N2597       N  0.77593536  0.63356567  0.05979548    -0.38000
N2598       N  0.65707648  0.78658371  0.50956086    -0.38000
N2599       N  0.69462049  0.61904305  0.57831732    -0.37500
N2600       N  0.74096987  0.80761327  0.49807320    -0.37500
C2601       C  0.83765083  0.73354638  0.96413673    -0.04100
C2602       C  0.83934082  0.76901690  0.95205733    -0.01300
C2603       C  0.86156912  0.77876976  0.93082956     0.03700
C2604       C  0.88193925  0.75279419  0.92049863    -0.04100
C2605       C  0.87950678  0.71682231  0.93131906    -0.01200
C2606       C  0.85740208  0.70722900  0.95315119     0.03700
C2607       C  0.81940499  0.79634130  0.96327981     0.38400
C2608       C  0.89953739  0.68980246  0.91990115     0.38400
C2609       C  0.85541091  0.67053678  0.96525899     0.36800
C2610       C  0.86415940  0.81629537  0.92080038     0.36800
N2611       N  0.85373806  0.64124413  0.97488356    -0.38000
N2612       N  0.86612682  0.84617955  0.91285471    -0.38000
N2613       N  0.91555417  0.66827277  0.91074600    -0.37500
N2614       N  0.80373860  0.81847919  0.97198846    -0.37500
C2615       C  0.83184769  0.99394025  0.69505814    -0.04100
C2616       C  0.85688671  0.01465090  0.68915772    -0.01300
C2617       C  0.87784415  0.00183505  0.66754739     0.03700
C2618       C  0.87314665  0.96894019  0.65076427    -0.04100
C2619       C  0.84547290  0.95204812  0.65242888    -0.01200
C2620       C  0.82543611  0.96370107  0.67547654     0.03700
C2621       C  0.86133044  0.04853980  0.70628851     0.38400
C2622       C  0.83716461  0.92247566  0.63099892     0.38400
C2623       C  0.79932702  0.94265149  0.68088495     0.36800
C2624       C  0.90372410  0.02306182  0.66191927     0.36800
N2625       N  0.77864232  0.92574210  0.68530586    -0.38000
N2626       N  0.92430637  0.04004959  0.65718734    -0.38000
N2627       N  0.82992390  0.89957851  0.61351072    -0.37500
N2628       N  0.86467629  0.07575774  0.71974169    -0.37500
C2629       C  0.84661230  0.74434920  0.57637088    -0.04100
C2630       C  0.87528495  0.73147344  0.57368749    -0.01300
C2631       C  0.89862980  0.75575565  0.57863633     0.03700
C2632       C  0.89306341  0.79031655  0.59158272    -0.04100
C2633       C  0.86603977  0.79543243  0.60670594    -0.01200
C2634       C  0.84208293  0.77459965  0.59657272     0.03700
C2635       C  0.88655163  0.69331924  0.06437029     0.38400
C2636       C  0.86298617  0.82249519  0.63190612     0.38400
C2637       C  0.81333069  0.78692836  0.60409123     0.36800
C2638       C  0.92747337  0.74565838  0.56926234     0.36800
N2639       N  0.79049075  0.79728603  0.61010259    -0.38000
N2640       N  0.95048821  0.73725232  0.56183443    -0.38000
N2641       N  0.86104528  0.84346458  0.65261530    -0.37500
N2642       N  0.89174923  0.66489473  0.05427172    -0.37500
C2643       C  0.85853290  0.96466913  0.51298159    -0.04100
C2644       C  0.83913247  0.44792594  0.49036893    -0.01300
C2645       C  0.80940823  0.49208713  0.01238879     0.03700
C2646       C  0.79023791  0.46425379  0.51019417    -0.04100
C2647       C  0.80386132  0.47344380  0.54041235    -0.01200
C2648       C  0.83426071  0.47307183  0.54400799     0.03700
C2649       C  0.85801777  0.93398485  0.96509591     0.38400
C2650       C  0.78714103  0.47990984  0.56943340     0.38400
C2651       C  0.85685702  0.99746487  0.56489271     0.36800
C2652       C  0.79862392  0.52880312  0.01164626     0.36800
N2653       N  0.86847586  0.01167852  0.58633956    -0.38000
N2654       N  0.78999192  0.55809191  0.01124229    -0.38000
N2655       N  0.77421461  0.48514164  0.59284172    -0.37500
N2656       N  0.87260536  0.92321339  0.94466028    -0.37500
loop_ 
_geom_bond_atom_site_label_1 
_geom_bond_atom_site_label_2 
_geom_bond_distance 
_geom_bond_site_symmetry_2 
_ccdc_geom_bond_type 
C1            C2   1.417       .  A
C1            C6   1.428       .  A
C1           C71   1.507       .  S
C2            C3   1.406       .  A
C2            H7   1.084       .  S
C3            C4   1.404       .  A
C3          C798   1.489       .  S
C4            C5   1.408       .  A
C4            H8   1.086       .  S
C5            C6   1.420       .  A
C5         C1353   1.509   1_455  S
C6            H9   1.082       .  S
O10          C26   1.280       .  A
O10         Zn16   2.041       .  S
C11         C651   1.508       .  S
C11          O27   1.287       .  A
C11          O24   1.270       .  A
O12          C25   1.284       .  A
O12         Cd19   2.117       .  S
O13          C31   1.261       .  A
O13         Cd22   1.991       .  S
O14          C28   1.282       .  A
O14         Cd18   2.129       .  S
O15          C26   1.286       .  A
O15         Cd18   2.136       .  S
Zn16         O27   2.124       .  S
Zn16         O29   2.065       .  S
Zn16         O21   1.916       .  S
O17          C28   1.264       .  A
O17         Cd22   2.027       .  S
Cd18         O20   2.111       .  S
Cd18         O21   2.004       .  S
Cd19         O23   2.153       .  S
Cd19         O32   2.138       .  S
Cd19         O21   1.995       .  S
O20          C30   1.285       .  A
O21         Cd22   1.931       .  S
Cd22         O24   2.020       .  S
O23          C30   1.293       .  A
C25        C1333   1.498   1_655  S
C25          O29   1.285       .  A
C26         C790   1.492   1_654  S
C28         C640   1.497       .  S
C30          C42   1.509   1_655  S
C31         C626   1.507       .  S
C31          O32   1.281       .  A
C33          C34   1.412       .  A
C33         C702   1.413   1_554  A
C33         C595   1.496       .  S
C34          C35   1.406       .  A
C34          H39   1.084       .  S
C35         C700   1.394       .  A
C35         C637   1.496       .  S
C36          C37   1.386       .  A
C36         C699   1.403       .  A
C36          H40   1.083       .  S
C37          C38   1.394       .  A
C37         C609   1.476       .  S
C38         C697   1.408       .  A
C38          H41   1.083       .  S
C42          C43   1.429       .  A
C42          C47   1.418   1_455  A
C43          C44   1.420       .  A
C43          H48   1.082       .  S
C44          C45   1.406       .  A
C44          C66   1.509       .  S
C45          C46   1.404   1_455  A
C45          H49   1.086       .  S
C46          C47   1.408       .  A
C46          C93   1.490       .  S
C47          H50   1.084       .  S
O51          C67   1.279       .  A
O51         Zn57   2.030       .  S
C52         C584   1.493       .  S
C52          O68   1.283       .  A
C52          O65   1.269       .  A
O53          C66   1.286       .  A
O53         Cd60   2.148       .  S
O54          C72   1.263       .  A
O54         Cd63   2.002       .  S
O55          C69   1.284       .  A
O55         Cd59   2.148       .  S
O56          C67   1.288       .  A
O56         Cd59   2.149       .  S
Zn57         O68   2.085       .  S
Zn57         O70   2.058       .  S
Zn57         O62   1.916       .  S
O58          C69   1.265       .  A
O58         Cd63   2.032       .  S
Cd59         O61   2.117       .  S
Cd59         O62   2.011       .  S
Cd60         O64   2.149       .  S
Cd60         O73   2.150       .  S
Cd60         O62   2.003       .  S
O61          C71   1.287       .  A
O62         Cd63   1.943       .  S
Cd63         O65   2.021       .  S
O64          C71   1.294       .  A
C66          O70   1.283       .  A
C67          C87   1.496       .  S
C69         C567   1.503       .  S
C72         C553   1.514       .  S
C72          O73   1.284       .  A
C74          C75   1.422       .  A
C74          C79   1.404       .  A
C74         C525   1.499       .  S
C75          C76   1.420       .  A
C75          H80   1.082       .  S
C76          C77   1.396       .  A
C76         C570   1.511       .  S
C77          C78   1.390       .  A
C77          H81   1.085       .  S
C78          C79   1.395       .  A
C78         C539   1.470       .  S
C79          H82   1.084       .  S
C83          C84   1.426       .  A
C83          C88   1.422       .  A
C83         C154   1.512       .  S
C84          C85   1.421       .  A
C84          H89   1.081       .  S
C85          C86   1.407       .  A
C85         C107   1.506   1_455  S
C86          C87   1.404       .  A
C86          H90   1.085       .  S
C87          C88   1.411       .  A
C88          H91   1.084       .  S
O92         C108   1.284       .  A
O92         Zn98   2.102       .  S
C93         O109   1.278       .  A
C93         O106   1.286       .  A
O94         C107   1.285       .  A
O94        Cd101   2.133       .  S
O95         C113   1.286       .  A
O95        Cd104   2.115       .  S
O96         C110   1.262       .  A
O96        Cd100   2.026       .  S
O97         C108   1.266       .  A
O97        Cd100   1.996       .  S
Zn98        O109   2.021       .  S
Zn98        O111   2.066       .  S
Zn98        O103   1.917       .  S
O99         C110   1.282       .  A
O99        Cd104   2.147       .  S
Cd100       O102   1.985       .  S
Cd100       O103   1.927       .  S
Cd101       O105   2.121       .  S
Cd101       O114   2.097       .  S
Cd101       O103   1.996       .  S
O102        C112   1.261       .  A
O103       Cd104   2.015       .  S
Cd104       O106   2.138       .  S
O105        C112   1.280       .  A
C107        O111   1.285       .  A
C108        C511   1.497       .  S
C110        C497   1.497       .  S
C112        C612   1.474       .  S
C113        C124   1.491   1_655  S
C113        O114   1.284       .  A
C115        C116   1.421       .  A
C115        C120   1.410       .  A
C115        C483   1.509       .  S
C116        C117   1.417       .  A
C116        H121   1.082       .  S
C117        C118   1.399       .  A
C117        C500   1.504       .  S
C118        C119   1.394       .  A
C118        H122   1.085       .  S
C119        C120   1.405       .  A
C119        C623   1.495       .  S
C120        H123   1.082       .  S
C124        C125   1.417   1_455  A
C124        C129   1.415       .  A
C125        C126   1.404       .  A
C125        H130   1.084       .  S
C126        C127   1.403   1_655  A
C126        C690   1.485       .  S
C127        C128   1.407       .  A
C127        H131   1.085       .  S
C128        C129   1.411       .  A
C128        C148   1.491       .  S
C129        H132   1.083       .  S
O133        C149   1.285       .  A
O133      Zn1467   2.123       .  S
C134        C667   1.490       .  S
C134        O150   1.278       .  A
C134        O147   1.288       .  A
O135        C148   1.286       .  A
O135      Cd1470   2.118       .  S
O136        C154   1.288       .  A
O136       Cd145   2.134       .  S
O137        C151   1.264       .  A
O137       Cd141   2.012       .  S
O138       C1477   1.263       .  A
O138       Cd141   2.003       .  S
Zn139       O150   2.017       .  S
Zn139      O1461   2.124       .  S
Zn139      O1480   2.049   1_545  S
Zn139       O144   1.913       .  S
O140        C151   1.281       .  A
O140       Cd145   2.118       .  S
Cd141       O143   1.982       .  S
Cd141       O144   1.911       .  S
Cd142       O146   2.115       .  S
Cd142       O155   2.140       .  S
Cd142      O1463   2.124   1_545  S
Cd142       O144   1.991       .  S
O143        C153   1.262       .  A
O144       Cd145   1.995       .  S
Cd145       O147   2.144       .  S
O146        C153   1.278       .  A
C148        O152   1.284       .  A
C149        C472   1.505       .  S
C149       O1466   1.265       .  A
C151        C458   1.484       .  S
O152      Zn1467   2.043       .  S
C153        C542   1.469   1_545  S
C154        O155   1.290       .  A
C156        C161   1.409       .  A
C156        C821   1.407       .  A
C156        C441   1.486       .  S
C157        C158   1.412       .  A
C157        C820   1.412   1_554  A
C157        H162   1.082       .  S
C158        C159   1.394   1_554  A
C158        C556   1.496       .  S
C159        C824   1.395       .  A
C159        H163   1.085       .  S
C160        C161   1.406       .  A
C160        C823   1.397       .  A
C160        C455   1.494       .  S
C161        H164   1.084       .  S
C165        C166   1.414       .  A
C165        C170   1.424       .  A
C165        C236   1.506       .  S
C166        C167   1.408       .  A
C166        H171   1.083       .  S
C167        C168   1.401       .  A
C167        C936   1.480       .  S
C168        C169   1.403       .  A
C168        H172   1.087       .  S
C169        C170   1.419       .  A
C169        C189   1.497       .  S
C170        H173   1.082       .  S
O174        C190   1.289       .  A
O174       Zn180   2.118       .  S
C175        C915   1.485   1_554  S
C175        O191   1.282       .  A
C175        O188   1.283       .  A
O176        C189   1.282       .  A
O176       Cd183   2.095       .  S
O177        C195   1.289       .  A
O177       Cd186   2.125       .  S
O178        C192   1.265       .  A
O178       Cd182   2.030       .  S
O179        C190   1.271       .  A
O179       Cd182   2.032       .  S
Zn180       O191   2.054       .  S
Zn180       O193   2.089       .  S
Zn180       O185   1.902       .  S
O181        C192   1.276       .  A
O181       Cd186   2.101       .  S
Cd182       O184   2.023       .  S
Cd182       O185   1.970       .  S
Cd183       O187   2.093       .  S
Cd183       O196   2.122       .  S
Cd183       O185   1.968       .  S
O184        C194   1.261       .  A
O185       Cd186   1.966       .  S
Cd186       O188   2.106       .  S
O187        C194   1.270       .  A
C189        O193   1.288       .  A
C190        C598   1.510       .  S
C192        C427   1.484       .  S
C194        C416   1.500       .  S
C195        C206   1.501       .  S
C195        O196   1.289       .  A
C197        C198   1.430       .  A
C197        C866   1.433   1_554  A
C197        C654   1.544       .  S
C198        C199   1.406   1_565  A
C198        H203   1.082   1_565  S
C199        C864   1.380   1_545  A
C199        C430   1.484       .  S
C200        C201   1.386       .  A
C200        C863   1.385   1_565  A
C200        H204   1.086       .  S
C201        C202   1.417       .  A
C201        C399   1.501       .  S
C202        C861   1.430       .  A
C202        H205   1.077       .  S
C206        C207   1.419       .  A
C206        C211   1.419       .  A
C207        C208   1.409       .  A
C207        H212   1.083       .  S
C208        C209   1.408       .  A
C208        C313   1.493       .  S
C209        C210   1.407       .  A
C209        H213   1.085       .  S
C210        C211   1.414       .  A
C210       C1558   1.498       .  S
C211        H214   1.084       .  S
O215        C231   1.284       .  A
O215       Zn221   2.086       .  S
C216        C292   1.493       .  S
C216        O232   1.276       .  A
C216        O229   1.288       .  A
O217        C230   1.284       .  A
O217       Cd224   2.112       .  S
O218        C236   1.286       .  A
O218       Cd227   2.115       .  S
O219        C233   1.266       .  A
O219       Cd223   2.030       .  S
O220        C231   1.271       .  A
O220       Cd223   2.024       .  S
Zn221       O232   2.013       .  S
Zn221       O234   2.061       .  S
Zn221       O226   1.915       .  S
O222        C233   1.285       .  A
O222       Cd227   2.151       .  S
Cd223       O225   2.004       .  S
Cd223       O226   1.944       .  S
Cd224       O228   2.132       .  S
Cd224       O237   2.148       .  S
Cd224       O226   1.981       .  S
O225        C235   1.264       .  A
O226       Cd227   1.999       .  S
Cd227       O229   2.152       .  S
O228        C235   1.280       .  A
C230       C1538   1.496       .  S
C230        O234   1.283       .  A
C231        C528   1.492       .  S
C233        C385   1.501       .  S
C235        C371   1.508       .  S
C236        O237   1.294       .  A
C238        C239   1.424       .  A
C238        C243   1.409       .  A
C238        C581   1.503       .  S
C239        C240   1.418       .  A
C239        H244   1.084       .  S
C240        C241   1.395       .  A
C240        C388   1.505       .  S
C241        C242   1.388       .  A
C241        H245   1.086       .  S
C242        C243   1.398       .  A
C242        C360   1.481       .  S
C243        H246   1.083       .  S
C247        C248   1.428       .  A
C247        C252   1.422       .  A
C247        C317   1.519       .  S
C248        C249   1.422       .  A
C248        H253   1.082       .  S
C249        C250   1.403       .  A
C249        C271   1.504       .  S
C250        C251   1.401       .  A
C250        H254   1.086       .  S
C251        C252   1.416       .  A
C251        C839   1.491       .  S
C252        H255   1.083       .  S
O256        C272   1.281       .  A
O256       Zn262   2.048       .  S
C257        C444   1.506       .  S
C257        O273   1.287       .  A
C257        O270   1.271       .  A
O258        C271   1.283       .  A
O258       Cd265   2.114       .  S
O259        C277   1.260       .  A
O259       Cd268   2.018       .  S
O260        C274   1.274       .  A
O260       Cd264   2.096       .  S
O261        C272   1.282       .  A
O261       Cd264   2.099       .  S
Zn262       O273   2.098       .  S
Zn262       O275   2.090       .  S
Zn262       O267   1.907       .  S
O263        C274   1.262       .  A
O263       Cd268   2.024       .  S
Cd264       O266   2.113       .  S
Cd264       O267   1.974       .  S
Cd265       O269   2.125       .  S
Cd265       O278   2.110       .  S
Cd265       O267   1.977       .  S
O266        C276   1.288       .  A
O267       Cd268   1.970       .  S
Cd268       O270   2.030       .  S
O269        C276   1.290       .  A
C271        O275   1.288       .  A
C272        C831   1.482       .  S
C274        C343   1.479       .  S
C276        C288   1.499       .  S
C277        C357   1.498       .  S
C277        O278   1.274       .  A
C279        C284   1.419       .  A
C279        C944   1.418       .  A
C279        C469   1.514       .  S
C280        C281   1.410       .  A
C280        C943   1.417       .  A
C280        H285   1.081       .  S
C281        C282   1.394       .  A
C281        C374   1.498       .  S
C282        C947   1.386   1_554  A
C282        H286   1.085       .  S
C283        C284   1.406       .  A
C283        C946   1.385       .  A
C283        C346   1.483       .  S
C284        H287   1.082       .  S
C288        C289   1.418       .  A
C288        C293   1.419       .  A
C289        C290   1.411       .  A
C289        H294   1.083       .  S
C290        C291   1.408       .  A
C290        C312   1.498       .  S
C291        C292   1.409       .  A
C291        H295   1.085       .  S
C292        C293   1.409       .  A
C293        H296   1.083       .  S
O297        C313   1.277       .  A
O297       Zn303   2.017       .  S
C298        C486   1.498       .  S
C298        O314   1.285       .  A
C298       O1639   1.271       .  A
O299        C312   1.286       .  A
O299      Cd1634   2.126       .  S
O300        C318   1.264       .  A
O300       Cd309   2.003       .  S
O301        C315   1.284       .  A
O301       Cd305   2.140       .  S
O302        C313   1.289       .  A
O302       Cd305   2.155       .  S
Zn303      O1642   2.098       .  S
Zn303      O1644   2.046   1_545  S
Zn303       O308   1.916       .  S
O304        C315   1.265       .  A
O304       Cd309   2.026       .  S
Cd305       O307   2.124       .  S
Cd305       O308   2.001       .  S
Cd306       O310   2.177       .  S
Cd306       O319   2.153       .  S
Cd306      O1627   2.139   1_545  S
Cd306       O308   1.995       .  S
O307        C317   1.287       .  A
O308       Cd309   1.934       .  S
Cd309       O311   2.028       .  S
O310        C317   1.296       .  A
O311       C1626   1.269       .  A
C312        O316   1.282       .  A
O314      Zn1631   2.095       .  S
C315        C329   1.493       .  S
O316      Zn1631   2.054       .  S
C318        C402   1.516   1_545  S
C318        O319   1.284       .  A
C320        C321   1.406       .  A
C320        C325   1.416       .  A
C320        C514   1.491       .  S
C321        C322   1.399       .  A
C321        H326   1.084       .  S
C322        C323   1.392       .  A
C322        C413   1.476       .  S
C323        C324   1.394       .  A
C323        H327   1.086       .  S
C324        C325   1.412       .  A
C324        C332   1.498       .  S
C325        H328   1.083       .  S
C329        C330   1.420       .  A
C329        C334   1.408       .  A
C330        C331   1.411       .  A
C330        C335   1.451       .  S
C331        C332   1.411       .  A
C331        C338   1.449       .  S
C332        C333   1.419       .  A
C333        C334   1.414       .  A
C333        C336   1.450       .  S
C334        C337   1.449       .  S
C335        N342   1.157       .  T
C336        N341   1.157       .  T
C337        N339   1.157       .  T
C338        N340   1.157       .  T
C343        C344   1.413       .  A
C343        C348   1.414       .  A
C344        C345   1.408       .  A
C344        C349   1.454       .  S
C345        C346   1.416       .  A
C345       C1016   1.453       .  S
C346        C347   1.409       .  A
C347        C348   1.412       .  A
C347        C350   1.449       .  S
C348        C351   1.450       .  S
C349       N1020   1.158       .  T
C350        N355   1.157       .  T
C351        N353   1.157       .  T
C352       C1009   1.453   1_554  S
C352        N354   1.157       .  T
N356       C1013   1.158   1_554  T
C357        C358   1.429       .  A
C357        C362   1.416       .  A
C358        C359   1.407       .  A
C358        C363   1.451       .  S
C359        C360   1.403       .  A
C359        C366   1.454       .  S
C360        C361   1.412       .  A
C361        C362   1.411       .  A
C361        C364   1.451       .  S
C362        C365   1.450       .  S
C363        N370   1.157       .  T
C364        N369   1.157       .  T
C365        N367   1.157       .  T
C366        N368   1.158       .  T
C371        C372   1.430       .  A
C371        C376   1.418       .  A
C372        C373   1.407       .  A
C372        C377   1.451       .  S
C373        C374   1.405       .  A
C373        C380   1.452       .  S
C374        C375   1.416       .  A
C375        C376   1.417       .  A
C375        C378   1.450       .  S
C376        C379   1.449       .  S
C377        N384   1.156       .  T
C378        N383   1.157       .  T
C379        N381   1.157       .  T
C380        N382   1.158       .  T
C385        C386   1.424       .  A
C385        C390   1.410       .  A
C386        C387   1.415       .  A
C386        C391   1.451       .  S
C387        C388   1.409       .  A
C387        C394   1.447       .  S
C388        C389   1.420       .  A
C389        C390   1.415       .  A
C389        C392   1.450       .  S
C390        C393   1.449       .  S
C391        N398   1.157       .  T
C392        N397   1.157       .  T
C393        N395   1.157       .  T
C394        N396   1.157       .  T
C399        C400   1.420       .  A
C399        C404   1.413       .  A
C400        C401   1.422       .  A
C400       C1733   1.449       .  S
C401        C402   1.417       .  A
C401       C1736   1.448       .  S
C402        C403   1.424       .  A
C403        C404   1.405       .  A
C403        C406   1.451   1_565  S
C404        C407   1.451       .  S
C405       C1728   1.450       .  S
C405        N412   1.157       .  T
C406        N411   1.156       .  T
C407        N409   1.157   1_565  T
C408       C1729   1.448       .  S
C408        N410   1.157       .  T
C413        C414   1.403       .  A
C413        C418   1.408       .  A
C414        C415   1.405       .  A
C414        C419   1.454       .  S
C415        C416   1.429       .  A
C415        C422   1.453       .  S
C416        C417   1.422       .  A
C417        C418   1.412       .  A
C417        C420   1.450       .  S
C418        C421   1.451       .  S
C419        N426   1.157       .  T
C420        N425   1.158       .  T
C421        N423   1.157       .  T
C422        N424   1.157       .  T
C427        C428   1.416       .  A
C427        C432   1.414       .  A
C428        C429   1.410       .  A
C428        C433   1.452       .  S
C429        C430   1.413       .  A
C429       C1100   1.451   1_554  S
C430        C431   1.411       .  A
C431        C432   1.413       .  A
C431        C434   1.450   1_545  S
C432        C435   1.451       .  S
C433       N1104   1.157   1_554  T
C434        N439   1.157       .  T
C435        N437   1.157       .  T
C436       C1093   1.452       .  S
C436        N438   1.157       .  T
N440       C1097   1.157       .  T
C441        C442   1.413       .  A
C441        C446   1.401       .  A
C442        C443   1.419       .  A
C442        C447   1.448       .  S
C443        C444   1.418       .  A
C443        C450   1.450       .  S
C444        C445   1.428       .  A
C445        C446   1.407       .  A
C445        C448   1.449       .  S
C446       C1113   1.455       .  S
C447        N454   1.157       .  T
C448        N453   1.156       .  T
C449       C1110   1.454       .  S
C449        N451   1.157       .  T
C450        N452   1.158       .  T
C455        C456   1.411       .  A
C455        C460   1.417       .  A
C456        C457   1.411       .  A
C456        C461   1.451       .  S
C457        C458   1.422       .  A
C457        C464   1.452       .  S
C458        C459   1.407       .  A
C459        C460   1.409       .  A
C459        C462   1.451       .  S
C460        C463   1.449       .  S
C461        N468   1.158       .  T
C462        N467   1.157       .  T
C463       N1129   1.157       .  T
C464        N466   1.158       .  T
N465       C1127   1.157       .  T
C469        C470   1.422       .  A
C469        C474   1.417       .  A
C470        C471   1.422       .  A
C470        C475   1.451       .  S
C471        C472   1.415       .  A
C471        C478   1.449       .  S
C472       C1801   1.418       .  A
C473       C1800   1.422       .  A
C473       C1802   1.413       .  A
C473        C476   1.455       .  S
C474       C1801   1.411       .  A
C474       C1805   1.449       .  S
C475        N482   1.158       .  T
C476        N481   1.158       .  T
C477       C1802   1.450       .  S
C477        N479   1.157       .  T
C478        N480   1.157       .  T
C483        C484   1.416       .  A
C483        C488   1.417       .  A
C484        C485   1.415       .  A
C484        C489   1.449       .  S
C485        C486   1.417       .  A
C485        C492   1.452       .  S
C486        C487   1.413       .  A
C487        C488   1.417       .  A
C487        C490   1.451       .  S
C488        C491   1.445       .  S
C489        N496   1.157       .  T
C490       N1823   1.157       .  T
C491        N493   1.155       .  T
C492        N494   1.158       .  T
N495       C1818   1.157       .  T
C497        C498   1.410       .  A
C497        C502   1.423       .  A
C498        C499   1.416       .  A
C498        C503   1.449       .  S
C499        C500   1.419       .  A
C499        C506   1.449       .  S
C500        C501   1.408       .  A
C501        C502   1.413       .  A
C501        C504   1.447       .  S
C502        C505   1.452       .  S
C503        N510   1.157       .  T
C504        N509   1.157       .  T
C505        N507   1.157       .  T
C506        N508   1.157       .  T
C511        C512   1.421       .  A
C511        C516   1.416       .  A
C512        C513   1.408       .  A
C512        C517   1.454       .  S
C513        C514   1.407       .  A
C513        C520   1.448       .  S
C514        C515   1.412       .  A
C515        C516   1.416       .  A
C515        C518   1.447       .  S
C516        C519   1.449       .  S
C517        N524   1.158       .  T
C518        N523   1.156       .  T
C519        N521   1.157       .  T
C520        N522   1.156       .  T
C525        C526   1.414       .  A
C525        C530   1.414       .  A
C526       C1855   1.413       .  A
C526        C531   1.449       .  S
C527        C528   1.416       .  A
C527       C1854   1.410       .  A
C527        C534   1.453       .  S
C528       C1857   1.414       .  A
C529        C530   1.416       .  A
C529       C1856   1.415       .  A
C529        C532   1.450   1_565  S
C530        C533   1.449   1_565  S
C531       N1866   1.157       .  T
C532        N537   1.157       .  T
C533        N535   1.157       .  T
C534        N536   1.158       .  T
N538       C1859   1.156       .  T
C539        C540   1.407   1_565  A
C539        C544   1.412       .  A
C540        C541   1.397       .  A
C540        C545   1.454       .  S
C541        C542   1.414   1_545  A
C541        C548   1.454       .  S
C542        C543   1.410       .  A
C543        C544   1.413       .  A
C543        C546   1.449       .  S
C544        C547   1.449       .  S
C545        N552   1.157       .  T
C546       N1879   1.157       .  T
C547       N1877   1.157       .  T
C548        N550   1.157       .  T
N549       C1875   1.157       .  T
N551       C1874   1.157       .  T
C553        C554   1.431       .  A
C553        C558   1.417       .  A
C554        C555   1.409       .  A
C554        C559   1.451       .  S
C555        C556   1.406       .  A
C555        C562   1.452       .  S
C556        C557   1.417       .  A
C557        C558   1.416       .  A
C557        C560   1.450       .  S
C558        C561   1.449       .  S
C559        N566   1.157       .  T
C560        N565   1.157       .  T
C561        N563   1.158       .  T
C562        N564   1.157       .  T
C567        C568   1.422       .  A
C567        C572   1.410       .  A
C568        C569   1.414       .  A
C568        C573   1.450       .  S
C569        C570   1.412   1_545  A
C569        C576   1.449       .  S
C570        C571   1.424       .  A
C571        C572   1.417   1_565  A
C571        C574   1.451       .  S
C572        C575   1.449       .  S
C573        N580   1.156       .  T
C574        N579   1.157       .  T
C575        N577   1.157   1_545  T
C576        N578   1.157       .  T
C581        C582   1.416       .  A
C581        C586   1.417       .  A
C582        C583   1.415       .  A
C582        C587   1.445       .  S
C583        C584   1.412       .  A
C583        C590   1.451       .  S
C584        C585   1.415       .  A
C585        C586   1.413       .  A
C585        C588   1.453       .  S
C586        C589   1.451       .  S
C587        N594   1.155       .  T
C588        N593   1.157       .  T
C589        N591   1.157       .  T
C590        N592   1.157       .  T
C595        C596   1.414       .  A
C595        C600   1.405       .  A
C596        C597   1.420       .  A
C596        C601   1.445       .  S
C597        C598   1.416       .  A
C597        C604   1.450       .  S
C598        C599   1.430       .  A
C599        C600   1.411       .  A
C599        C602   1.449       .  S
C600        C603   1.454       .  S
C601        N608   1.155   1_554  T
C602        N607   1.156       .  T
C603       N1269   1.157       .  T
C604        N606   1.157       .  T
N605       C1267   1.158       .  T
C609        C610   1.406       .  A
C609        C614   1.414       .  A
C610        C611   1.403       .  A
C610        C615   1.453       .  S
C611        C612   1.417       .  A
C611        C618   1.452       .  S
C612        C613   1.407       .  A
C613        C614   1.412       .  A
C613        C616   1.449       .  S
C614        C617   1.449       .  S
C615        N622   1.157       .  T
C616        N621   1.157       .  T
C617        N619   1.157       .  T
C618        N620   1.156       .  T
C623        C624   1.418       .  A
C623        C628   1.409       .  A
C624        C625   1.415       .  A
C624        C629   1.450       .  S
C625        C626   1.413       .  A
C625        C632   1.449       .  S
C626        C627   1.427       .  A
C627        C628   1.406       .  A
C627        C630   1.453       .  S
C628        C631   1.452       .  S
C629        N636   1.157       .  T
C630        N635   1.157       .  T
C631        N633   1.158       .  T
C632        N634   1.157       .  T
C637        C638   1.417       .  A
C637        C642   1.413       .  A
C638        C639   1.412       .  A
C638       C1307   1.451       .  S
C639        C640   1.412       .  A
C639        C646   1.450       .  S
C640        C641   1.424       .  A
C641        C642   1.410       .  A
C641        C644   1.453       .  S
C642        C645   1.452       .  S
C643       C1302   1.449       .  S
C643        N650   1.157       .  T
C644        N649   1.158       .  T
C645        N647   1.158       .  T
C646        N648   1.157       .  T
C651       C1980   1.419       .  A
C651       C1984   1.420       .  A
C652       C1979   1.406   1_556  A
C652       C1317   1.428       .  A
C652       C2649   1.451       .  S
C653       C1316   1.424       .  A
C653       C1318   1.436       .  A
C653        C660   1.447       .  S
C654        C655   1.429       .  A
C654       C1317   1.438   1_554  A
C655        C656   1.415       .  A
C655        C658   1.452       .  S
C656       C1979   1.406       .  A
C656       C1987   1.449       .  S
C657       C2644   1.451       .  S
C657        N664   1.157       .  T
C658        N663   1.157       .  T
C659       C1984   1.454       .  S
C659        N661   1.158       .  T
C660        N662   1.158       .  T
C665        C666   1.419       .  A
C665        C670   1.433       .  A
C665        C735   1.512       .  S
C666        C667   1.406       .  A
C666        H671   1.083       .  S
C667        C668   1.400       .  A
C668        C669   1.408       .  A
C668        H672   1.085       .  S
C669        C670   1.423       .  A
C669       C2017   1.513   1_455  S
C670        H673   1.082       .  S
O674        C690   1.280       .  A
O674       Zn680   2.025       .  S
C675       C1315   1.497       .  S
C675        O691   1.283       .  A
C675        O688   1.267       .  A
O676        C689   1.286       .  A
O676       Cd683   2.153       .  S
O677        C695   1.261       .  A
O677       Cd686   1.983       .  S
O678        C692   1.283       .  A
O678       Cd682   2.141       .  S
O679        C690   1.288       .  A
O679       Cd682   2.136       .  S
Zn680       O691   2.117       .  S
Zn680       O693   2.043       .  S
Zn680       O685   1.927       .  S
O681        C692   1.266       .  A
O681       Cd686   2.021       .  S
Cd682       O684   2.108       .  S
Cd682       O685   2.012       .  S
Cd683       O687   2.130       .  S
Cd683       O696   2.122       .  S
Cd683       O685   2.009       .  S
O684        C694   1.283       .  A
O685       Cd686   1.945       .  S
Cd686       O688   2.035       .  S
O687        C694   1.288       .  A
C689       C1997   1.509   1_655  S
C689        O693   1.280       .  A
C692       C1304   1.507       .  S
C694        C706   1.507   1_655  S
C695       C1290   1.494       .  S
C695        O696   1.282       .  A
C697        C698   1.423       .  A
C697       C1259   1.508       .  S
C698        C699   1.420       .  A
C698        H703   1.081       .  S
C699       C1301   1.514       .  S
C700        C701   1.391   1_554  A
C700        H704   1.085       .  S
C701        C702   1.408       .  A
C701       C1273   1.482       .  S
C702        H705   1.083       .  S
C706        C707   1.427       .  A
C706        C711   1.420   1_455  A
C707        C708   1.417       .  A
C707        H712   1.082       .  S
C708        C709   1.406       .  A
C708        C730   1.503       .  S
C709        C710   1.402       .  A
C709        H713   1.086       .  S
C710        C711   1.407   1_455  A
C710        C757   1.490   1_455  S
C711        H714   1.084       .  S
O715        C731   1.280       .  A
O715       Zn721   2.029       .  S
C716       C1248   1.494       .  S
C716        O732   1.280       .  A
C716        O729   1.268       .  A
O717        C730   1.286       .  A
O717       Cd724   2.147       .  S
O718        C736   1.261       .  A
O718       Cd727   1.989       .  S
O719        C733   1.284       .  A
O719       Cd723   2.150       .  S
O720        C731   1.288       .  A
O720       Cd723   2.147       .  S
Zn721       O732   2.086       .  S
Zn721       O734   2.034       .  S
Zn721       O726   1.918       .  S
O722        C733   1.265       .  A
O722       Cd727   2.024       .  S
Cd723       O725   2.126       .  S
Cd723       O726   2.009       .  S
Cd724       O728   2.154       .  S
Cd724       O737   2.151       .  S
Cd724       O726   2.003       .  S
O725        C735   1.287       .  A
O726       Cd727   1.931       .  S
Cd727       O729   2.018       .  S
O728        C735   1.295       .  A
C730        O734   1.280       .  A
C731        C751   1.494       .  S
C733       C1231   1.503       .  S
C736       C1217   1.510       .  S
C736        O737   1.285       .  A
C738        C739   1.421       .  A
C738        C743   1.405       .  A
C738       C1189   1.502       .  S
C739        C740   1.420       .  A
C739        H744   1.082       .  S
C740        C741   1.398       .  A
C740       C1234   1.511       .  S
C741        C742   1.389       .  A
C741        H745   1.084       .  S
C742        C743   1.398       .  A
C742       C1203   1.473       .  S
C743        H746   1.084       .  S
C747        C748   1.422       .  A
C747        C752   1.421       .  A
C747        C818   1.503       .  S
C748        C749   1.415       .  A
C748        H753   1.081       .  S
C749        C750   1.407       .  A
C749        C771   1.499   1_455  S
C750        C751   1.403       .  A
C750        H754   1.085       .  S
C751        C752   1.410       .  A
C752        H755   1.084       .  S
O756        C772   1.282       .  A
O756       Zn762   2.084       .  S
C757        O773   1.277       .  A
C757        O770   1.287       .  A
O758        C771   1.286       .  A
O758       Cd765   2.136       .  S
O759        C777   1.288       .  A
O759       Cd768   2.124       .  S
O760        C774   1.261       .  A
O760       Cd764   2.018       .  S
O761        C772   1.268       .  A
O761       Cd764   2.016       .  S
Zn762       O773   2.010       .  S
Zn762       O775   2.039       .  S
Zn762       O767   1.906       .  S
O763        C774   1.282       .  A
O763       Cd768   2.142       .  S
Cd764       O766   1.993       .  S
Cd764       O767   1.917       .  S
Cd765       O769   2.134       .  S
Cd765       O778   2.125       .  S
Cd765       O767   1.992       .  S
O766        C776   1.263       .  A
O767       Cd768   2.010       .  S
Cd768       O770   2.146       .  S
O769        C776   1.282       .  A
C771        O775   1.282       .  A
C772       C1175   1.496       .  S
C774       C1161   1.494       .  S
C776       C1276   1.481       .  S
C777        C788   1.503   1_655  S
C777        O778   1.289       .  A
C779        C780   1.419       .  A
C779        C784   1.407       .  A
C779       C1147   1.496       .  S
C780        C781   1.414       .  A
C780        H785   1.083       .  S
C781        C782   1.394       .  A
C781       C1164   1.494       .  S
C782        C783   1.386       .  A
C782        H786   1.086       .  S
C783        C784   1.397       .  A
C783       C1287   1.476       .  S
C784        H787   1.083       .  S
C788        C789   1.419   1_455  A
C788        C793   1.421       .  A
C789        C790   1.408   1_655  A
C789        H794   1.083       .  S
C790        C791   1.404       .  A
C791        C792   1.407       .  A
C791        H795   1.085       .  S
C792        C793   1.416       .  A
C792        C812   1.499       .  S
C793        H796   1.083       .  S
O797        C813   1.286       .  A
O797      Zn2131   2.129       .  S
C798        O814   1.279   1_554  A
C798        O811   1.287   1_554  A
O799        C812   1.286       .  A
O799      Cd2134   2.127       .  S
O800        C818   1.286       .  A
O800       Cd809   2.120       .  S
O801        C815   1.264       .  A
O801       Cd805   2.021       .  S
O802       C2141   1.265       .  A
O802       Cd805   1.999       .  S
Zn803      O2125   2.132       .  S
Zn803       O814   2.023       .  S
Zn803      O2144   2.071   1_545  S
Zn803       O808   1.916       .  S
O804        C815   1.282       .  A
O804       Cd809   2.130       .  S
Cd805       O807   1.987       .  S
Cd805       O808   1.915       .  S
Cd806      O2127   2.120   1_545  S
Cd806       O810   2.110       .  S
Cd806       O819   2.125       .  S
Cd806       O808   1.986       .  S
O807        C817   1.263       .  A
O808       Cd809   1.997       .  S
Cd809       O811   2.139       .  S
O810        C817   1.278       .  A
C812        O816   1.285       .  A
C813       C1136   1.507       .  S
C813       O2130   1.265       .  A
C815       C1122   1.489       .  S
O816      Zn2131   2.060       .  S
C817       C1206   1.471   1_545  S
C818        O819   1.288       .  A
C820        C825   1.412       .  A
C820       C1105   1.497       .  S
C821        C822   1.405       .  A
C821        H826   1.081       .  S
C822        C823   1.397       .  A
C822       C1220   1.491       .  S
C823        H827   1.085       .  S
C824        C825   1.407       .  A
C824       C1119   1.494       .  S
C825        H828   1.084       .  S
C829        C830   1.419       .  A
C829        C834   1.424       .  A
C829        C900   1.508       .  S
C830        C831   1.412       .  A
C830        H835   1.083       .  S
C831        C832   1.396       .  A
C832        C833   1.401       .  A
C832        H836   1.087       .  S
C833        C834   1.417       .  A
C833        C853   1.493       .  S
C834        H837   1.082       .  S
O838        C854   1.285       .  A
O838       Zn844   2.102       .  S
C839        O855   1.282       .  A
C839        O852   1.284       .  A
O840        C853   1.283       .  A
O840       Cd847   2.109       .  S
O841        C859   1.287       .  A
O841       Cd850   2.125       .  S
O842        C856   1.261       .  A
O842       Cd846   1.999       .  S
O843        C854   1.270       .  A
O843       Cd846   2.043       .  S
Zn844       O855   2.057       .  S
Zn844       O857   2.058       .  S
Zn844       O849   1.907       .  S
O845        C856   1.277       .  A
O845       Cd850   2.098       .  S
Cd846       O848   2.015       .  S
Cd846       O849   1.958       .  S
Cd847       O851   2.108       .  S
Cd847       O860   2.131       .  S
Cd847       O849   1.995       .  S
O848        C858   1.260       .  A
O849       Cd850   1.991       .  S
Cd850       O852   2.117       .  S
O851        C858   1.273       .  A
C853        O857   1.285       .  A
C854       C1262   1.493       .  S
C856       C1091   1.472       .  S
C858       C1080   1.497       .  S
C859        C870   1.505       .  S
C859        O860   1.290       .  A
C861        C862   1.425   1_565  A
C861       C1318   1.540       .  S
C862        C863   1.406       .  A
C862        H867   1.080       .  S
C863       C1094   1.482       .  S
C864        C865   1.384   1_554  A
C864        H868   1.087       .  S
C865        C866   1.419       .  A
C865       C1063   1.499       .  S
C866        H869   1.066       .  S
C870        C871   1.419       .  A
C870        C875   1.423       .  A
C871        C872   1.409       .  A
C871        H876   1.083       .  S
C872        C873   1.410       .  A
C872        C977   1.496       .  S
C873        C874   1.409       .  A
C873        H877   1.085       .  S
C874        C875   1.417       .  A
C874       C2222   1.506       .  S
C875        H878   1.083       .  S
O879        C895   1.283       .  A
O879       Zn885   2.082       .  S
C880        C956   1.492       .  S
C880        O896   1.275       .  A
C880        O893   1.288       .  A
O881        C894   1.285       .  A
O881       Cd888   2.111       .  S
O882        C900   1.286       .  A
O882       Cd891   2.112       .  S
O883        C897   1.265       .  A
O883       Cd887   2.022       .  S
O884        C895   1.270       .  A
O884       Cd887   2.018       .  S
Zn885       O896   2.009       .  S
Zn885       O898   2.044       .  S
Zn885       O890   1.909       .  S
O886        C897   1.284       .  A
O886       Cd891   2.137       .  S
Cd887       O889   2.001       .  S
Cd887       O890   1.936       .  S
Cd888       O892   2.133       .  S
Cd888       O901   2.153       .  S
Cd888       O890   1.976       .  S
O889        C899   1.263       .  A
O890       Cd891   1.990       .  S
Cd891       O893   2.150       .  S
O892        C899   1.281       .  A
C894       C2202   1.489       .  S
C894        O898   1.281       .  A
C895       C1192   1.492       .  S
C897       C1049   1.495       .  S
C899       C1035   1.506       .  S
C900        O901   1.293       .  A
C902        C903   1.421       .  A
C902        C907   1.406       .  A
C902       C1245   1.498       .  S
C903        C904   1.417       .  A
C903        H908   1.084       .  S
C904        C905   1.398       .  A
C904       C1052   1.504       .  S
C905        C906   1.388       .  A
C905        H909   1.085       .  S
C906        C907   1.394       .  A
C906       C1024   1.478       .  S
C907        H910   1.083       .  S
C911        C912   1.430       .  A
C911        C916   1.415       .  A
C911        C981   1.515       .  S
C912        C913   1.425       .  A
C912        H917   1.082       .  S
C913        C914   1.406       .  A
C913        C935   1.508       .  S
C914        C915   1.402       .  A
C914        H918   1.086       .  S
C915        C916   1.409       .  A
C916        H919   1.083       .  S
O920        C936   1.280   1_556  A
O920       Zn926   2.043       .  S
C921       C1108   1.515       .  S
C921        O937   1.289       .  A
C921        O934   1.271       .  A
O922        C935   1.284       .  A
O922       Cd929   2.118       .  S
O923        C941   1.262       .  A
O923       Cd932   2.018       .  S
O924        C938   1.276       .  A
O924       Cd928   2.105       .  S
O925        C936   1.282   1_556  A
O925       Cd928   2.099       .  S
Zn926       O937   2.119       .  S
Zn926       O939   2.097       .  S
Zn926       O931   1.909       .  S
O927        C938   1.263       .  A
O927       Cd932   2.032       .  S
Cd928       O930   2.111       .  S
Cd928       O931   1.974       .  S
Cd929       O933   2.124       .  S
Cd929       O942   2.102       .  S
Cd929       O931   1.974       .  S
O930        C940   1.287       .  A
O931       Cd932   1.973       .  S
Cd932       O934   2.034       .  S
O933        C940   1.290       .  A
C935        O939   1.289       .  A
C938       C1007   1.484       .  S
C940        C952   1.498       .  S
C941       C1021   1.498       .  S
C941        O942   1.274       .  A
C943        C948   1.419   1_554  A
C943       C1133   1.513       .  S
C944        C945   1.410       .  A
C944        H949   1.080       .  S
C945        C946   1.392       .  A
C945       C1038   1.499       .  S
C946        H950   1.085       .  S
C947        C948   1.407       .  A
C947       C1010   1.486       .  S
C948        H951   1.083       .  S
C952        C953   1.418       .  A
C952        C957   1.418       .  A
C953        C954   1.411       .  A
C953        H958   1.084       .  S
C954        C955   1.408       .  A
C954        C976   1.497       .  S
C955        C956   1.409       .  A
C955        H959   1.085       .  S
C956        C957   1.408       .  A
C957        H960   1.083       .  S
O961        C977   1.275       .  A
O961       Zn967   2.010       .  S
C962       C1150   1.502       .  S
C962        O978   1.284       .  A
C962       O2303   1.272       .  A
O963        C976   1.285       .  A
O963      Cd2298   2.122       .  S
O964        C982   1.265       .  A
O964       Cd973   2.007       .  S
O965        C979   1.286       .  A
O965       Cd969   2.151       .  S
O966        C977   1.289       .  A
O966       Cd969   2.162       .  S
Zn967      O2306   2.079       .  S
Zn967      O2308   2.026   1_545  S
Zn967       O972   1.920       .  S
O968        C979   1.266       .  A
O968       Cd973   2.027       .  S
Cd969       O971   2.125       .  S
Cd969       O972   2.009       .  S
Cd970      O2291   2.119   1_545  S
Cd970       O974   2.168       .  S
Cd970       O983   2.151       .  S
Cd970       O972   1.996       .  S
O971        C981   1.287       .  A
O972       Cd973   1.940       .  S
Cd973       O975   2.032       .  S
O974        C981   1.296       .  A
O975       C2290   1.269       .  A
C976        O980   1.281       .  A
O978      Zn2295   2.086       .  S
C979        C993   1.495       .  S
O980      Zn2295   2.049       .  S
C982       C1066   1.514   1_545  S
C982        O983   1.282       .  A
C984        C985   1.406       .  A
C984        C989   1.419       .  A
C984       C1178   1.492       .  S
C985        C986   1.397       .  A
C985        H990   1.084       .  S
C986        C987   1.390       .  A
C986       C1077   1.477       .  S
C987        C988   1.394       .  A
C987        H991   1.086       .  S
C988        C989   1.413       .  A
C988        C996   1.496       .  S
C989        H992   1.083       .  S
C993        C994   1.422       .  A
C993        C998   1.410       .  A
C994        C995   1.412       .  A
C994        C999   1.451       .  S
C995        C996   1.408       .  A
C995       C1002   1.449       .  S
C996        C997   1.417       .  A
C997        C998   1.415       .  A
C997       C1000   1.450       .  S
C998       C1001   1.448       .  S
C999       N1006   1.157       .  T
C1000      N1005   1.157       .  T
C1001      N1003   1.157       .  T
C1002      N1004   1.157       .  T
C1007      C1008   1.414       .  A
C1007      C1012   1.416       .  A
C1008      C1009   1.409       .  A
C1008      C1013   1.453       .  S
C1009      C1010   1.416       .  A
C1010      C1011   1.409       .  A
C1011      C1012   1.414       .  A
C1011      C1014   1.449       .  S
C1012      C1015   1.450       .  S
C1014      N1019   1.157       .  T
C1015      N1017   1.157       .  T
C1016      N1018   1.157       .  T
C1021      C1022   1.429       .  A
C1021      C1026   1.418       .  A
C1022      C1023   1.405       .  A
C1022      C1027   1.451       .  S
C1023      C1024   1.403       .  A
C1023      C1030   1.454       .  S
C1024      C1025   1.410       .  A
C1025      C1026   1.410       .  A
C1025      C1028   1.451       .  S
C1026      C1029   1.450       .  S
C1027      N1034   1.157       .  T
C1028      N1033   1.157       .  T
C1029      N1031   1.157       .  T
C1030      N1032   1.158       .  T
C1035      C1036   1.430       .  A
C1035      C1040   1.417       .  A
C1036      C1037   1.407       .  A
C1036      C1041   1.450       .  S
C1037      C1038   1.405       .  A
C1037      C1044   1.452       .  S
C1038      C1039   1.418       .  A
C1039      C1040   1.417       .  A
C1039      C1042   1.451       .  S
C1040      C1043   1.449       .  S
C1041      N1048   1.156       .  T
C1042      N1047   1.157       .  T
C1043      N1045   1.157       .  T
C1044      N1046   1.157       .  T
C1049      C1050   1.424       .  A
C1049      C1054   1.409       .  A
C1050      C1051   1.414       .  A
C1050      C1055   1.452       .  S
C1051      C1052   1.409       .  A
C1051      C1058   1.448       .  S
C1052      C1053   1.419       .  A
C1053      C1054   1.412       .  A
C1053      C1056   1.450       .  S
C1054      C1057   1.449       .  S
C1055      N1062   1.158       .  T
C1056      N1061   1.157       .  T
C1057      N1059   1.157       .  T
C1058      N1060   1.157       .  T
C1063      C1064   1.422       .  A
C1063      C1068   1.410       .  A
C1064      C1065   1.421       .  A
C1064      C2397   1.450       .  S
C1065      C1066   1.415       .  A
C1065      C2400   1.448       .  S
C1066      C1067   1.425       .  A
C1067      C1068   1.407       .  A
C1067      C1070   1.452       .  S
C1068      C1071   1.450       .  S
C1069      C2392   1.450       .  S
C1069      N1076   1.157       .  T
C1070      N1075   1.156   1_565  T
C1071      N1073   1.157       .  T
C1072      C2393   1.449       .  S
C1072      N1074   1.157       .  T
C1077      C1078   1.403       .  A
C1077      C1082   1.409       .  A
C1078      C1079   1.405       .  A
C1078      C1083   1.454       .  S
C1079      C1080   1.429       .  A
C1079      C1086   1.452       .  S
C1080      C1081   1.418       .  A
C1081      C1082   1.411       .  A
C1081      C1084   1.450       .  S
C1082      C1085   1.451       .  S
C1083      N1090   1.158       .  T
C1084      N1089   1.157       .  T
C1085      N1087   1.157       .  T
C1086      N1088   1.157       .  T
C1091      C1092   1.408       .  A
C1091      C1096   1.414       .  A
C1092      C1093   1.404       .  A
C1092      C1097   1.452       .  S
C1093      C1094   1.415       .  A
C1094      C1095   1.411       .  A
C1095      C1096   1.412       .  A
C1095      C1098   1.449       .  S
C1096      C1099   1.452       .  S
C1098      N1103   1.157   1_545  T
C1099      N1101   1.158       .  T
C1100      N1102   1.157       .  T
C1105      C1106   1.414       .  A
C1105      C1110   1.403       .  A
C1106      C1107   1.421       .  A
C1106      C1111   1.447   1_556  S
C1107      C1108   1.419       .  A
C1107      C1114   1.450       .  S
C1108      C1109   1.431       .  A
C1109      C1110   1.412       .  A
C1109      C1112   1.450       .  S
C1111      N1118   1.156       .  T
C1112      N1117   1.156       .  T
C1113      N1115   1.157       .  T
C1114      N1116   1.158       .  T
C1119      C1120   1.410       .  A
C1119      C1124   1.417       .  A
C1120      C1121   1.411       .  A
C1120      C1125   1.451       .  S
C1121      C1122   1.422       .  A
C1121      C1128   1.452       .  S
C1122      C1123   1.409       .  A
C1123      C1124   1.411       .  A
C1123      C1126   1.450       .  S
C1124      C1127   1.450       .  S
C1125      N1132   1.157       .  T
C1126      N1131   1.157       .  T
C1128      N1130   1.157       .  T
C1133      C1134   1.421       .  A
C1133      C1138   1.416       .  A
C1134      C1135   1.422   1_554  A
C1134      C1139   1.450       .  S
C1135      C1136   1.416       .  A
C1135      C1142   1.449       .  S
C1136      C2465   1.420       .  A
C1137      C2464   1.421       .  A
C1137      C2466   1.412       .  A
C1137      C1140   1.454   1_556  S
C1138      C2465   1.412   1_554  A
C1138      C2469   1.450       .  S
C1139      N1146   1.157       .  T
C1140      N1145   1.158       .  T
C1141      C2466   1.449   1_554  S
C1141      N1143   1.156       .  T
C1142      N1144   1.157       .  T
C1147      C1148   1.412       .  A
C1147      C1152   1.411       .  A
C1148      C1149   1.413       .  A
C1148      C1153   1.450       .  S
C1149      C1150   1.421       .  A
C1149      C1156   1.453       .  S
C1150      C1151   1.421       .  A
C1151      C1152   1.416       .  A
C1151      C1154   1.451       .  S
C1152      C1155   1.450       .  S
C1153      N1160   1.156       .  T
C1154      N2487   1.157       .  T
C1155      N1157   1.157       .  T
C1156      N1158   1.158       .  T
N1159      C2482   1.157       .  T
C1161      C1162   1.411       .  A
C1161      C1166   1.425       .  A
C1162      C1163   1.414       .  A
C1162      C1167   1.449       .  S
C1163      C1164   1.417       .  A
C1163      C1170   1.450       .  S
C1164      C1165   1.405       .  A
C1165      C1166   1.410       .  A
C1165      C1168   1.449       .  S
C1166      C1169   1.453       .  S
C1167      N1174   1.157       .  T
C1168      N1173   1.157       .  T
C1169      N1171   1.157       .  T
C1170      N1172   1.157       .  T
C1175      C1176   1.419       .  A
C1175      C1180   1.415       .  A
C1176      C1177   1.409       .  A
C1176      C1181   1.453       .  S
C1177      C1178   1.411       .  A
C1177      C1184   1.451       .  S
C1178      C1179   1.413       .  A
C1179      C1180   1.415       .  A
C1179      C1182   1.447       .  S
C1180      C1183   1.450       .  S
C1181      N1188   1.158       .  T
C1182      N1187   1.156       .  T
C1183      N1185   1.158       .  T
C1184      N1186   1.157       .  T
C1189      C1190   1.415       .  A
C1189      C1194   1.415       .  A
C1190      C2519   1.414       .  A
C1190      C1195   1.450       .  S
C1191      C2518   1.410       .  A
C1191      C1192   1.420       .  A
C1191      C1198   1.453       .  S
C1192      C2521   1.416       .  A
C1193      C2520   1.414       .  A
C1193      C1194   1.416       .  A
C1193      C1196   1.451   1_565  S
C1194      C1197   1.448   1_565  S
C1195      N2530   1.157       .  T
C1196      N1201   1.157       .  T
C1197      N1199   1.157       .  T
C1198      N1200   1.158       .  T
N1202      C2523   1.157       .  T
C1203      C1204   1.411   1_565  A
C1203      C1208   1.412       .  A
C1204      C1205   1.399       .  A
C1204      C1209   1.455       .  S
C1205      C1206   1.414   1_545  A
C1205      C1212   1.455       .  S
C1206      C1207   1.410       .  A
C1207      C1208   1.413       .  A
C1207      C1210   1.449       .  S
C1208      C1211   1.449       .  S
C1209      N1216   1.157       .  T
C1210      N2543   1.157       .  T
C1211      N2541   1.157       .  T
C1212      N1214   1.157       .  T
N1213      C2539   1.157       .  T
N1215      C2538   1.157       .  T
C1217      C1218   1.433       .  A
C1217      C1222   1.416       .  A
C1218      C1219   1.408       .  A
C1218      C1223   1.451       .  S
C1219      C1220   1.404       .  A
C1219      C1226   1.452       .  S
C1220      C1221   1.413       .  A
C1221      C1222   1.413       .  A
C1221      C1224   1.449       .  S
C1222      C1225   1.448       .  S
C1223      N1230   1.157       .  T
C1224      N1229   1.157       .  T
C1225      N1227   1.157       .  T
C1226      N1228   1.158       .  T
C1231      C1232   1.423       .  A
C1231      C1236   1.412       .  A
C1232      C1233   1.412       .  A
C1232      C1237   1.450       .  S
C1233      C1234   1.410   1_545  A
C1233      C1240   1.448       .  S
C1234      C1235   1.422       .  A
C1235      C1236   1.418   1_565  A
C1235      C1238   1.450       .  S
C1236      C1239   1.449       .  S
C1237      N1244   1.156       .  T
C1238      N1243   1.157       .  T
C1239      N1241   1.157   1_545  T
C1240      N1242   1.157       .  T
C1245      C1246   1.416       .  A
C1245      C1250   1.415       .  A
C1246      C1247   1.417       .  A
C1246      C1251   1.448       .  S
C1247      C1248   1.416       .  A
C1247      C1254   1.450       .  S
C1248      C1249   1.414       .  A
C1249      C1250   1.409       .  A
C1249      C1252   1.451       .  S
C1250      C1253   1.452       .  S
C1251      N1258   1.157       .  T
C1252      N1257   1.157       .  T
C1253      N1255   1.157       .  T
C1254      N1256   1.157       .  T
C1259      C1260   1.418       .  A
C1259      C1264   1.419       .  A
C1260      C1261   1.418       .  A
C1260      C1265   1.450       .  S
C1261      C1262   1.414       .  A
C1261      C1268   1.450       .  S
C1262      C1263   1.411       .  A
C1263      C1264   1.414       .  A
C1263      C1266   1.449       .  S
C1264      C1267   1.452       .  S
C1265      N1272   1.157       .  T
C1266      N1271   1.156       .  T
C1268      N1270   1.157       .  T
C1273      C1274   1.408       .  A
C1273      C1278   1.416       .  A
C1274      C1275   1.404       .  A
C1274      C1279   1.450       .  S
C1275      C1276   1.415       .  A
C1275      C1282   1.454       .  S
C1276      C1277   1.409       .  A
C1277      C1278   1.416       .  A
C1277      C1280   1.449       .  S
C1278      C1281   1.449       .  S
C1279      N1286   1.156       .  T
C1280      N1285   1.157       .  T
C1281      N1283   1.157       .  T
C1282      N1284   1.157       .  T
C1287      C1288   1.412       .  A
C1287      C1292   1.404       .  A
C1288      C1289   1.410       .  A
C1288      C1293   1.451       .  S
C1289      C1290   1.413       .  A
C1289      C1296   1.450       .  S
C1290      C1291   1.430       .  A
C1291      C1292   1.404       .  A
C1291      C1294   1.454       .  S
C1292      C1295   1.454       .  S
C1293      N1300   1.157       .  T
C1294      N1299   1.158       .  T
C1295      N1297   1.157       .  T
C1296      N1298   1.157       .  T
C1301      C1302   1.419       .  A
C1301      C1306   1.409       .  A
C1302      C1303   1.416       .  A
C1303      C1304   1.414       .  A
C1303      C1310   1.447       .  S
C1304      C1305   1.423       .  A
C1305      C1306   1.413       .  A
C1305      C1308   1.450       .  S
C1306      C1309   1.447       .  S
C1307      N1314   1.157       .  T
C1308      N1313   1.157       .  T
C1309      N1311   1.158       .  T
C1310      N1312   1.157       .  T
C1315      C2644   1.402       .  A
C1315      C2648   1.406       .  A
C1316      C2643   1.405       .  A
C1316      C1985   1.451       .  S
C1317      C1324   1.446       .  S
C1318      C1319   1.433       .  A
C1319      C1320   1.415       .  A
C1319      C1322   1.451       .  S
C1320      C2643   1.404       .  A
C1320      C2651   1.450       .  S
C1321      C1980   1.450       .  S
C1321      N1328   1.157       .  T
C1322      N1327   1.157       .  T
C1323      C2648   1.450       .  S
C1323      N1325   1.156       .  T
C1324      N1326   1.158       .  T
C1329      C1330   1.415       .  A
C1329      C1334   1.423       .  A
C1329      C1399   1.501       .  S
C1330      C1331   1.405       .  A
C1330      H1335   1.084       .  S
C1331      C1332   1.402       .  A
C1331      C2126   1.482       .  S
C1332      C1333   1.404       .  A
C1332      H1336   1.086       .  S
C1333      C1334   1.417       .  A
C1334      H1337   1.082       .  S
O1338      C1354   1.281       .  A
O1338     Zn1344   2.031       .  S
C1339      C1979   1.500       .  S
C1339      O1355   1.285       .  A
C1339      O1352   1.267       .  A
O1340      C1353   1.287   1_565  A
O1340     Cd1347   2.151       .  S
O1341      C1359   1.261       .  A
O1341     Cd1350   1.984       .  S
O1342      C1356   1.283       .  A
O1342     Cd1346   2.144       .  S
O1343      C1354   1.290       .  A
O1343     Cd1346   2.149       .  S
Zn1344     O1355   2.132       .  S
Zn1344     O1357   2.054       .  S
Zn1344     O1349   1.930       .  S
O1345      C1356   1.265       .  A
O1345     Cd1350   2.011       .  S
Cd1346     O1348   2.119       .  S
Cd1346     O1349   2.016       .  S
Cd1347     O1351   2.128       .  S
Cd1347     O1360   2.116       .  S
Cd1347     O1349   2.014       .  S
O1348      C1358   1.285       .  A
O1349     Cd1350   1.936       .  S
Cd1350     O1352   2.036       .  S
O1351      C1358   1.287       .  A
C1353      O1357   1.282   1_545  A
C1354      C2118   1.491   1_654  S
C1356      C1968   1.508       .  S
C1358      C1370   1.509   1_655  S
C1359      C1954   1.501       .  S
C1359      O1360   1.280       .  A
C1361      C1362   1.418       .  A
C1361      C2030   1.410   1_554  A
C1361      C1923   1.499       .  S
C1362      C1363   1.413       .  A
C1362      H1367   1.081       .  S
C1363      C2028   1.398       .  A
C1363      C1965   1.506       .  S
C1364      C2027   1.396       .  A
C1364      C1365   1.387       .  A
C1364      H1368   1.085       .  S
C1365      C1366   1.400       .  A
C1365      C1937   1.476       .  S
C1366      C2025   1.408       .  A
C1366      H1369   1.083       .  S
C1370      C1371   1.424       .  A
C1370      C1375   1.422   1_455  A
C1371      C1372   1.417       .  A
C1371      H1376   1.082       .  S
C1372      C1373   1.403       .  A
C1372      C1394   1.499       .  S
C1373      C1374   1.403   1_455  A
C1373      H1377   1.086       .  S
C1374      C1375   1.411       .  A
C1374      C1421   1.490       .  S
C1375      H1378   1.084       .  S
O1379      C1395   1.279       .  A
O1379     Zn1385   2.032       .  S
C1380      C1912   1.493       .  S
C1380      O1396   1.284       .  A
C1380      O1393   1.269       .  A
O1381      C1394   1.283       .  A
O1381     Cd1388   2.118       .  S
O1382      C1400   1.263       .  A
O1382     Cd1391   2.002       .  S
O1383      C1397   1.284       .  A
O1383     Cd1387   2.148       .  S
O1384      C1395   1.288       .  A
O1384     Cd1387   2.155       .  S
Zn1385     O1396   2.086       .  S
Zn1385     O1398   2.061       .  S
Zn1385     O1390   1.913       .  S
O1386      C1397   1.265       .  A
O1386     Cd1391   2.030       .  S
Cd1387     O1389   2.115       .  S
Cd1387     O1390   2.008       .  S
Cd1388     O1392   2.133       .  S
Cd1388     O1401   2.142       .  S
Cd1388     O1390   1.996       .  S
O1389      C1399   1.287       .  A
O1390     Cd1391   1.940       .  S
Cd1391     O1393   2.017       .  S
O1392      C1399   1.292       .  A
C1394      O1398   1.284       .  A
C1395      C1415   1.498       .  S
C1397      C1895   1.499       .  S
C1400      C1881   1.511       .  S
C1400      O1401   1.282       .  A
C1402      C1403   1.420       .  A
C1402      C1407   1.403       .  A
C1402      C1853   1.498       .  S
C1403      C1404   1.419       .  A
C1403      H1408   1.082       .  S
C1404      C1405   1.398       .  A
C1404      C1898   1.509       .  S
C1405      C1406   1.391       .  A
C1405      H1409   1.085       .  S
C1406      C1407   1.396       .  A
C1406      C1867   1.473       .  S
C1407      H1410   1.084       .  S
C1411      C1412   1.425       .  A
C1411      C1416   1.422       .  A
C1411      C1482   1.508       .  S
C1412      C1413   1.418       .  A
C1412      H1417   1.081       .  S
C1413      C1414   1.409       .  A
C1413      C1435   1.507   1_455  S
C1414      C1415   1.405       .  A
C1414      H1418   1.085       .  S
C1415      C1416   1.411       .  A
C1416      H1419   1.085       .  S
O1420      C1436   1.283       .  A
O1420     Zn1426   2.098       .  S
C1421      O1437   1.279       .  A
C1421      O1434   1.286       .  A
O1422      C1435   1.287       .  A
O1422     Cd1429   2.147       .  S
O1423      C1441   1.285       .  A
O1423     Cd1432   2.110       .  S
O1424      C1438   1.261       .  A
O1424     Cd1428   2.017       .  S
O1425      C1436   1.265       .  A
O1425     Cd1428   2.010       .  S
Zn1426     O1437   2.022       .  S
Zn1426     O1439   2.053       .  S
Zn1426     O1431   1.908       .  S
O1427      C1438   1.282       .  A
O1427     Cd1432   2.142       .  S
Cd1428     O1430   1.993       .  S
Cd1428     O1431   1.918       .  S
Cd1429     O1433   2.134       .  S
Cd1429     O1442   2.120       .  S
Cd1429     O1431   1.991       .  S
O1430      C1440   1.263       .  A
O1431     Cd1432   2.007       .  S
Cd1432     O1434   2.138       .  S
O1433      C1440   1.282       .  A
C1435      O1439   1.283       .  A
C1436      C1839   1.495       .  S
C1438      C1825   1.492       .  S
C1440      C1940   1.478       .  S
C1441      C1452   1.497   1_655  S
C1441      O1442   1.288       .  A
C1443      C1444   1.416       .  A
C1443      C1448   1.406       .  A
C1443      C1811   1.495   1_565  S
C1444      C1445   1.414       .  A
C1444      H1449   1.082       .  S
C1445      C1446   1.396       .  A
C1445      C1828   1.496       .  S
C1446      C1447   1.391       .  A
C1446      H1450   1.085       .  S
C1447      C1448   1.400       .  A
C1447      C1951   1.483       .  S
C1448      H1451   1.083   1_565  S
C1452      C1453   1.417   1_455  A
C1452      C1457   1.422       .  A
C1453      C1454   1.404   1_655  A
C1453      H1458   1.084       .  S
C1454      C1455   1.400       .  A
C1454      C2018   1.481   1_455  S
C1455      C1456   1.403       .  A
C1455      H1459   1.086       .  S
C1456      C1457   1.415       .  A
C1456      C1476   1.495       .  S
C1457      H1460   1.083       .  S
O1461      C1477   1.284       .  A
C1462      C1995   1.492       .  S
C1462      O1478   1.278       .  A
C1462      O1475   1.288       .  A
O1463      C1476   1.287       .  A
O1464      C1482   1.286       .  A
O1464     Cd1473   2.126       .  S
O1465      C1479   1.261       .  A
O1465     Cd1469   2.009       .  S
O1466     Cd1469   2.004       .  S
Zn1467     O1478   2.022       .  S
Zn1467     O1472   1.920       .  S
O1468      C1479   1.282       .  A
O1468     Cd1473   2.125       .  S
Cd1469     O1471   1.981       .  S
Cd1469     O1472   1.914       .  S
Cd1470     O1474   2.120       .  S
Cd1470     O1483   2.133       .  S
Cd1470     O1472   1.990       .  S
O1471      C1481   1.261       .  A
O1472     Cd1473   2.002       .  S
Cd1473     O1475   2.145       .  S
O1474      C1481   1.279       .  A
C1476      O1480   1.285       .  A
C1477      C1800   1.506       .  S
C1479      C1786   1.482       .  S
C1481      C1870   1.474       .  S
C1482      O1483   1.288       .  A
C1484      C2149   1.411       .  A
C1484      C1489   1.407       .  A
C1484      C1769   1.488       .  S
C1485      C2148   1.412   1_554  A
C1485      C1486   1.412       .  A
C1485      H1490   1.081       .  S
C1486      C1487   1.397   1_554  A
C1486      C1884   1.498       .  S
C1487      C2152   1.395       .  A
C1487      H1491   1.085       .  S
C1488      C2151   1.396       .  A
C1488      C1489   1.401       .  A
C1488      C1783   1.488       .  S
C1489      H1492   1.084       .  S
C1493      C1494   1.413       .  A
C1493      C1498   1.425       .  A
C1493      C1564   1.505       .  S
C1494      C1495   1.406       .  A
C1494      H1499   1.083       .  S
C1495      C1496   1.403       .  A
C1495      C2264   1.480       .  S
C1496      C1497   1.405       .  A
C1496      H1500   1.087       .  S
C1497      C1498   1.420       .  A
C1497      C1517   1.501       .  S
C1498      H1501   1.082       .  S
O1502      C1518   1.289       .  A
O1502     Zn1508   2.119       .  S
C1503      C2243   1.483   1_554  S
C1503      O1519   1.282       .  A
C1503      O1516   1.283       .  A
O1504      C1517   1.283       .  A
O1504     Cd1511   2.105       .  S
O1505      C1523   1.288       .  A
O1505     Cd1514   2.118       .  S
O1506      C1520   1.264       .  A
O1506     Cd1510   2.028       .  S
O1507      C1518   1.271       .  A
O1507     Cd1510   2.031       .  S
Zn1508     O1519   2.052       .  S
Zn1508     O1521   2.088       .  S
Zn1508     O1513   1.912       .  S
O1509      C1520   1.278       .  A
O1509     Cd1514   2.108       .  S
Cd1510     O1512   2.019       .  S
Cd1510     O1513   1.967       .  S
Cd1511     O1515   2.097       .  S
Cd1511     O1524   2.119       .  S
Cd1511     O1513   1.976       .  S
O1512      C1522   1.260       .  A
O1513     Cd1514   1.971       .  S
Cd1514     O1516   2.104       .  S
O1515      C1522   1.272       .  A
C1517      O1521   1.287       .  A
C1518      C1926   1.509       .  S
C1520      C1755   1.483       .  S
C1522      C1744   1.499       .  S
C1523      C1534   1.499       .  S
C1523      O1524   1.289       .  A
C1525      C1526   1.419       .  A
C1525      C2194   1.418   1_554  A
C1525      C1982   1.513       .  S
C1526      C1527   1.408       .  A
C1526      H1531   1.082       .  S
C1527      C2192   1.388   1_554  A
C1527      C1758   1.487       .  S
C1528      C2191   1.380       .  A
C1528      C1529   1.385       .  A
C1528      H1532   1.087       .  S
C1529      C1530   1.416       .  A
C1529      C1727   1.498       .  S
C1530      C2189   1.432       .  A
C1530      H1533   1.067       .  S
C1534      C1535   1.418       .  A
C1534      C1539   1.419       .  A
C1535      C1536   1.408       .  A
C1535      H1540   1.083       .  S
C1536      C1537   1.408       .  A
C1536      C1641   1.491       .  S
C1537      C1538   1.406       .  A
C1537      H1541   1.085       .  S
C1538      C1539   1.413       .  A
C1539      H1542   1.084       .  S
O1543      C1559   1.285       .  A
O1543     Zn1549   2.094       .  S
C1544      C1620   1.488       .  S
C1544      O1560   1.276       .  A
C1544      O1557   1.287       .  A
O1545      C1558   1.283   1_565  A
O1545     Cd1552   2.112       .  S
O1546      C1564   1.286       .  A
O1546     Cd1555   2.116       .  S
O1547      C1561   1.268       .  A
O1547     Cd1551   2.038       .  S
O1548      C1559   1.271       .  A
O1548     Cd1551   2.030       .  S
Zn1549     O1560   2.011       .  S
Zn1549     O1562   2.065   1_565  S
Zn1549     O1554   1.914       .  S
O1550      C1561   1.284       .  A
O1550     Cd1555   2.145       .  S
Cd1551     O1553   2.018       .  S
Cd1551     O1554   1.946       .  S
Cd1552     O1556   2.127       .  S
Cd1552     O1565   2.142       .  S
Cd1552     O1554   1.982       .  S
O1553      C1563   1.266       .  A
O1554     Cd1555   2.000       .  S
Cd1555     O1557   2.141       .  S
O1556      C1563   1.281       .  A
C1558      O1562   1.283       .  A
C1559      C1856   1.495       .  S
C1561      C1713   1.504       .  S
C1563      C1699   1.513   1_565  S
C1564      O1565   1.293       .  A
C1566      C1567   1.420       .  A
C1566      C1571   1.404       .  A
C1566      C1909   1.492       .  S
C1567      C1568   1.417       .  A
C1567      H1572   1.084       .  S
C1568      C1569   1.397       .  A
C1568      C1716   1.504       .  S
C1569      C1570   1.390       .  A
C1569      H1573   1.086       .  S
C1570      C1571   1.393       .  A
C1570      C1688   1.472       .  S
C1571      H1574   1.083       .  S
C1575      C1576   1.428       .  A
C1575      C1580   1.417       .  A
C1575      C1645   1.513       .  S
C1576      C1577   1.422       .  A
C1576      H1581   1.082       .  S
C1577      C1578   1.400       .  A
C1577      C1599   1.499       .  S
C1578      C1579   1.396       .  A
C1578      H1582   1.086       .  S
C1579      C1580   1.411       .  A
C1579      C2167   1.479       .  S
C1580      H1583   1.083       .  S
O1584      C1600   1.280       .  A
O1584     Zn1590   2.041       .  S
C1585      C1772   1.501       .  S
C1585      O1601   1.285       .  A
C1585      O1598   1.272       .  A
O1586      C1599   1.281       .  A
O1586     Cd1593   2.106       .  S
O1587      C1605   1.258       .  A
O1587     Cd1596   2.010       .  S
O1588      C1602   1.277       .  A
O1588     Cd1592   2.109       .  S
O1589      C1600   1.281       .  A
O1589     Cd1592   2.100       .  S
Zn1590     O1601   2.093       .  S
Zn1590     O1603   2.079       .  S
Zn1590     O1595   1.906       .  S
O1591      C1602   1.262       .  A
O1591     Cd1596   2.018       .  S
Cd1592     O1594   2.107       .  S
Cd1592     O1595   1.981       .  S
Cd1593     O1597   2.124       .  S
Cd1593     O1606   2.104       .  S
Cd1593     O1595   1.990       .  S
O1594      C1604   1.286       .  A
O1595     Cd1596   1.965       .  S
Cd1596     O1598   2.036       .  S
O1597      C1604   1.290       .  A
C1599      O1603   1.287       .  A
C1600      C2159   1.481       .  S
C1602      C1671   1.479       .  S
C1604      C1616   1.496       .  S
C1605      C1685   1.500       .  S
C1605      O1606   1.271       .  A
C1607      C2272   1.417       .  A
C1607      C1612   1.418   1_545  A
C1607      C1797   1.511       .  S
C1608      C2271   1.416   1_554  A
C1608      C1609   1.410       .  A
C1608      H1613   1.081       .  S
C1609      C1610   1.395       .  A
C1609      C1702   1.501       .  S
C1610      C2275   1.387   1_554  A
C1610      H1614   1.085       .  S
C1611      C2274   1.387   1_565  A
C1611      C1612   1.405       .  A
C1611      C1674   1.485       .  S
C1612      H1615   1.083       .  S
C1616      C1617   1.420       .  A
C1616      C1621   1.415       .  A
C1617      C1618   1.413       .  A
C1617      H1622   1.083       .  S
C1618      C1619   1.409       .  A
C1618      C1640   1.500       .  S
C1619      C1620   1.407       .  A
C1619      H1623   1.085       .  S
C1620      C1621   1.405       .  A
C1621      H1624   1.084       .  S
O1625      C1641   1.276       .  A
O1625     Zn1631   2.012       .  S
C1626      C1814   1.507       .  S
C1626      O1642   1.284       .  A
O1627      C1640   1.288       .  A
O1628      C1646   1.266       .  A
O1628     Cd1637   2.013       .  S
O1629      C1643   1.285       .  A
O1629     Cd1633   2.145       .  S
O1630      C1641   1.288       .  A
O1630     Cd1633   2.150       .  S
Zn1631     O1636   1.915       .  S
O1632      C1643   1.266       .  A
O1632     Cd1637   2.031       .  S
Cd1633     O1635   2.116       .  S
Cd1633     O1636   2.005       .  S
Cd1634     O1638   2.165       .  S
Cd1634     O1647   2.144       .  S
Cd1634     O1636   1.992       .  S
O1635      C1645   1.286       .  A
O1636     Cd1637   1.940       .  S
Cd1637     O1639   2.035       .  S
O1638      C1645   1.295       .  A
C1640      O1644   1.282       .  A
C1643      C1657   1.499       .  S
C1646      C1730   1.516       .  S
C1646      O1647   1.282       .  A
C1648      C1649   1.407       .  A
C1648      C1653   1.421       .  A
C1648      C1842   1.498       .  S
C1649      C1650   1.397       .  A
C1649      H1654   1.084       .  S
C1650      C1651   1.389       .  A
C1650      C1741   1.477       .  S
C1651      C1652   1.395       .  A
C1651      H1655   1.085       .  S
C1652      C1653   1.417       .  A
C1652      C1660   1.503       .  S
C1653      H1656   1.082       .  S
C1657      C1658   1.423       .  A
C1657      C1662   1.411       .  A
C1658      C1659   1.412       .  A
C1658      C1663   1.452       .  S
C1659      C1660   1.408       .  A
C1659      C1666   1.447       .  S
C1660      C1661   1.420       .  A
C1661      C1662   1.416       .  A
C1661      C1664   1.451       .  S
C1662      C1665   1.449       .  S
C1663      N1670   1.157       .  T
C1664      N1669   1.157       .  T
C1665      N1667   1.157       .  T
C1666      N1668   1.157       .  T
C1671      C1672   1.412       .  A
C1671      C1676   1.415       .  A
C1672      C1673   1.407       .  A
C1672      C1677   1.453       .  S
C1673      C1674   1.416       .  A
C1673      C2344   1.454       .  S
C1674      C1675   1.409       .  A
C1675      C1676   1.414       .  A
C1675      C1678   1.449       .  S
C1676      C1679   1.450       .  S
C1677      N2348   1.157       .  T
C1678      N1683   1.157   1_565  T
C1679      N1681   1.157       .  T
C1680      C2337   1.453   1_554  S
C1680      N1682   1.157       .  T
N1684      C2341   1.157   1_554  T
C1685      C1686   1.431       .  A
C1685      C1690   1.421       .  A
C1686      C1687   1.405       .  A
C1686      C1691   1.453       .  S
C1687      C1688   1.402       .  A
C1687      C1694   1.453       .  S
C1688      C1689   1.405       .  A
C1689      C1690   1.410       .  A
C1689      C1692   1.451       .  S
C1690      C1693   1.450       .  S
C1691      N1698   1.157       .  T
C1692      N1697   1.157       .  T
C1693      N1695   1.157       .  T
C1694      N1696   1.157       .  T
C1699      C1700   1.430   1_545  A
C1699      C1704   1.420       .  A
C1700      C1701   1.410   1_565  A
C1700      C1705   1.452       .  S
C1701      C1702   1.408       .  A
C1701      C1708   1.451       .  S
C1702      C1703   1.415       .  A
C1703      C1704   1.416       .  A
C1703      C1706   1.451       .  S
C1704      C1707   1.449       .  S
C1705      N1712   1.157       .  T
C1706      N1711   1.157       .  T
C1707      N1709   1.157       .  T
C1708      N1710   1.158       .  T
C1713      C1714   1.425       .  A
C1713      C1718   1.413       .  A
C1714      C1715   1.414       .  A
C1714      C1719   1.452       .  S
C1715      C1716   1.409       .  A
C1715      C1722   1.449       .  S
C1716      C1717   1.419       .  A
C1717      C1718   1.416       .  A
C1717      C1720   1.451       .  S
C1718      C1721   1.449       .  S
C1719      N1726   1.157       .  T
C1720      N1725   1.157       .  T
C1721      N1723   1.157       .  T
C1722      N1724   1.157       .  T
C1727      C1728   1.418       .  A
C1727      C1732   1.411       .  A
C1728      C1729   1.420       .  A
C1729      C1730   1.418       .  A
C1730      C1731   1.427       .  A
C1731      C1732   1.409       .  A
C1731      C1734   1.453       .  S
C1732      C1735   1.451       .  S
C1733      N1740   1.157       .  T
C1734      N1739   1.157       .  T
C1735      N1737   1.157       .  T
C1736      N1738   1.157       .  T
C1741      C1742   1.404       .  A
C1741      C1746   1.409       .  A
C1742      C1743   1.407       .  A
C1742      C1747   1.454       .  S
C1743      C1744   1.430       .  A
C1743      C1750   1.453       .  S
C1744      C1745   1.420       .  A
C1745      C1746   1.410       .  A
C1745      C1748   1.450       .  S
C1746      C1749   1.452       .  S
C1747      N1754   1.157       .  T
C1748      N1753   1.157       .  T
C1749      N1751   1.157       .  T
C1750      N1752   1.157       .  T
C1755      C1756   1.413       .  A
C1755      C1760   1.417       .  A
C1756      C1757   1.407       .  A
C1756      C1761   1.453       .  S
C1757      C1758   1.416       .  A
C1757      C2428   1.454   1_554  S
C1758      C1759   1.408       .  A
C1759      C1760   1.415       .  A
C1759      C1762   1.449       .  S
C1760      C1763   1.450       .  S
C1761      N2432   1.157   1_554  T
C1762      N1767   1.157       .  T
C1763      N1765   1.157       .  T
C1764      C2421   1.452       .  S
C1764      N1766   1.157       .  T
N1768      C2425   1.157       .  T
C1769      C1770   1.414       .  A
C1769      C1774   1.402       .  A
C1770      C1771   1.419       .  A
C1770      C1775   1.448       .  S
C1771      C1772   1.416       .  A
C1771      C1778   1.450       .  S
C1772      C1773   1.426       .  A
C1773      C1774   1.407       .  A
C1773      C1776   1.450       .  S
C1774      C2441   1.454       .  S
C1775      N1782   1.157       .  T
C1776      N1781   1.156       .  T
C1777      C2438   1.454       .  S
C1777      N1779   1.157       .  T
C1778      N1780   1.158       .  T
C1783      C1784   1.406       .  A
C1783      C1788   1.413       .  A
C1784      C1785   1.409       .  A
C1784      C1789   1.450       .  S
C1785      C1786   1.423       .  A
C1785      C1792   1.451       .  S
C1786      C1787   1.407       .  A
C1787      C1788   1.407       .  A
C1787      C1790   1.449       .  S
C1788      C1791   1.448       .  S
C1789      N1796   1.157       .  T
C1790      N1795   1.157       .  T
C1791      N2457   1.157       .  T
C1792      N1794   1.158       .  T
N1793      C2455   1.157       .  T
C1797      C1798   1.420   1_545  A
C1797      C1802   1.416       .  A
C1798      C1799   1.421       .  A
C1798      C1803   1.451       .  S
C1799      C1800   1.415   1_565  A
C1799      C1806   1.449       .  S
C1801      C1804   1.455       .  S
C1803      N1810   1.157       .  T
C1804      N1809   1.158       .  T
C1805      N1807   1.156       .  T
C1806      N1808   1.157       .  T
C1811      C1812   1.408       .  A
C1811      C1816   1.413   1_545  A
C1812      C1813   1.411       .  A
C1812      C1817   1.451       .  S
C1813      C1814   1.423       .  A
C1813      C1820   1.452       .  S
C1814      C1815   1.420   1_545  A
C1815      C1816   1.419       .  A
C1815      C1818   1.450       .  S
C1816      C1819   1.449       .  S
C1817      N1824   1.156       .  T
C1819      N1821   1.157       .  T
C1820      N1822   1.157       .  T
C1825      C1826   1.409       .  A
C1825      C1830   1.423       .  A
C1826      C1827   1.414       .  A
C1826      C1831   1.449       .  S
C1827      C1828   1.419       .  A
C1827      C1834   1.450   1_565  S
C1828      C1829   1.407       .  A
C1829      C1830   1.411       .  A
C1829      C1832   1.450       .  S
C1830      C1833   1.452       .  S
C1831      N1838   1.157       .  T
C1832      N1837   1.157       .  T
C1833      N1835   1.157       .  T
C1834      N1836   1.157       .  T
C1839      C1840   1.419       .  A
C1839      C1844   1.415       .  A
C1840      C1841   1.412       .  A
C1840      C1845   1.453       .  S
C1841      C1842   1.414       .  A
C1841      C1848   1.451       .  S
C1842      C1843   1.414       .  A
C1843      C1844   1.415       .  A
C1843      C1846   1.447       .  S
C1844      C1847   1.451       .  S
C1845      N1852   1.158       .  T
C1846      N1851   1.156       .  T
C1847      N1849   1.157       .  T
C1848      N1850   1.157       .  T
C1853      C1854   1.413       .  A
C1853      C1858   1.414       .  A
C1854      C1859   1.448       .  S
C1855      C1856   1.417       .  A
C1855      C1862   1.453       .  S
C1857      C1858   1.416       .  A
C1857      C1860   1.450       .  S
C1858      C1861   1.447       .  S
C1860      N1865   1.157       .  T
C1861      N1863   1.156       .  T
C1862      N1864   1.158       .  T
C1867      C1868   1.408       .  A
C1867      C1872   1.412       .  A
C1868      C1869   1.399       .  A
C1868      C1873   1.455       .  S
C1869      C1870   1.417       .  A
C1869      C1876   1.454       .  S
C1870      C1871   1.410       .  A
C1871      C1872   1.413       .  A
C1871      C1874   1.449       .  S
C1872      C1875   1.449       .  S
C1873      N1880   1.157       .  T
C1876      N1878   1.157       .  T
C1881      C1882   1.430       .  A
C1881      C1886   1.416       .  A
C1882      C1883   1.410       .  A
C1882      C1887   1.451       .  S
C1883      C1884   1.406       .  A
C1883      C1890   1.451       .  S
C1884      C1885   1.417       .  A
C1885      C1886   1.415       .  A
C1885      C1888   1.450       .  S
C1886      C1889   1.449       .  S
C1887      N1894   1.157       .  T
C1888      N1893   1.157       .  T
C1889      N1891   1.158       .  T
C1890      N1892   1.158       .  T
C1895      C1896   1.421       .  A
C1895      C1900   1.409       .  A
C1896      C1897   1.413       .  A
C1896      C1901   1.452       .  S
C1897      C1898   1.413       .  A
C1897      C1904   1.448       .  S
C1898      C1899   1.422       .  A
C1899      C1900   1.417       .  A
C1899      C1902   1.450       .  S
C1900      C1903   1.449       .  S
C1901      N1908   1.157       .  T
C1902      N1907   1.157       .  T
C1903      N1905   1.157       .  T
C1904      N1906   1.157       .  T
C1909      C1910   1.413       .  A
C1909      C1914   1.411       .  A
C1910      C1911   1.415       .  A
C1910      C1915   1.448       .  S
C1911      C1912   1.416       .  A
C1911      C1918   1.450       .  S
C1912      C1913   1.418       .  A
C1913      C1914   1.410       .  A
C1913      C1916   1.453       .  S
C1914      C1917   1.450       .  S
C1915      N1922   1.156       .  T
C1916      N1921   1.158       .  T
C1917      N1919   1.157       .  T
C1918      N1920   1.157       .  T
C1923      C1924   1.418       .  A
C1923      C1928   1.406       .  A
C1924      C1925   1.423       .  A
C1924      C1929   1.448       .  S
C1925      C1926   1.416       .  A
C1925      C1932   1.450       .  S
C1926      C1927   1.427       .  A
C1927      C1928   1.409       .  A
C1927      C1930   1.450       .  S
C1928      C1931   1.454       .  S
C1929      N1936   1.157       .  T
C1930      N1935   1.156       .  T
C1931      N2597   1.157       .  T
C1932      N1934   1.158       .  T
N1933      C2595   1.157       .  T
C1937      C1938   1.405       .  A
C1937      C1942   1.416       .  A
C1938      C1939   1.403       .  A
C1938      C1943   1.453       .  S
C1939      C1940   1.417       .  A
C1939      C1946   1.452       .  S
C1940      C1941   1.408       .  A
C1941      C1942   1.413       .  A
C1941      C1944   1.449       .  S
C1942      C1945   1.450       .  S
C1943      N1950   1.157       .  T
C1944      N1949   1.157       .  T
C1945      N1947   1.157       .  T
C1946      N1948   1.157       .  T
C1951      C1952   1.412   1_565  A
C1951      C1956   1.404       .  A
C1952      C1953   1.411   1_545  A
C1952      C1957   1.451       .  S
C1953      C1954   1.417       .  A
C1953      C1960   1.451   1_565  S
C1954      C1955   1.434       .  A
C1955      C1956   1.405       .  A
C1955      C1958   1.455       .  S
C1956      C1959   1.454       .  S
C1957      N1964   1.157       .  T
C1958      N1963   1.158       .  T
C1959      N1961   1.157       .  T
C1960      N1962   1.158       .  T
C1965      C1966   1.419       .  A
C1965      C1970   1.410       .  A
C1966      C1967   1.415       .  A
C1966      C2635   1.450       .  S
C1967      C1968   1.413       .  A
C1967      C1974   1.447       .  S
C1968      C1969   1.424       .  A
C1969      C1970   1.411       .  A
C1969      C1972   1.451       .  S
C1970      C1973   1.448       .  S
C1971      C2630   1.450       .  S
C1971      N1978   1.157       .  T
C1972      N1977   1.157       .  T
C1973      N1975   1.158       .  T
C1974      N1976   1.157       .  T
C1980      C2645   1.424       .  A
C1981      C2644   1.424       .  A
C1981      C2646   1.440       .  A
C1981      C1988   1.446       .  S
C1982      C2645   1.420       .  A
C1982      C1983   1.415       .  A
C1983      C1984   1.412       .  A
C1983      C1986   1.450       .  S
C1985      N1992   1.157       .  T
C1986      N1991   1.156       .  T
C1987      N1989   1.156   1_565  T
C1988      N1990   1.158       .  T
C1993      C1994   1.419       .  A
C1993      C1998   1.427       .  A
C1993      C2063   1.507       .  S
C1994      C1995   1.407       .  A
C1994      H1999   1.084       .  S
C1995      C1996   1.405       .  A
C1996      C1997   1.409       .  A
C1996      H2000   1.085       .  S
C1997      C1998   1.419       .  A
C1998      H2001   1.081       .  S
O2002      C2018   1.279       .  A
O2002     Zn2008   2.009       .  S
C2003      C2643   1.497       .  S
C2003      O2019   1.280       .  A
C2003      O2016   1.266       .  A
O2004      C2017   1.286   1_565  A
O2004     Cd2011   2.167       .  S
O2005      C2023   1.264       .  A
O2005     Cd2014   1.992       .  S
O2006      C2020   1.281       .  A
O2006     Cd2010   2.142       .  S
O2007      C2018   1.288       .  A
O2007     Cd2010   2.135       .  S
Zn2008     O2019   2.107       .  S
Zn2008     O2021   2.028       .  S
Zn2008     O2013   1.918       .  S
O2009      C2020   1.265       .  A
O2009     Cd2014   2.003       .  S
Cd2010     O2012   2.111       .  S
Cd2010     O2013   2.018       .  S
Cd2011     O2015   2.139       .  S
Cd2011     O2024   2.115       .  S
Cd2011     O2013   2.008       .  S
O2012      C2022   1.284       .  A
O2013     Cd2014   1.947       .  S
Cd2014     O2016   2.048       .  S
O2015      C2022   1.289       .  A
C2017      O2021   1.279   1_545  A
C2020      C2632   1.502       .  S
C2022      C2034   1.510   1_655  S
C2023      C2618   1.489       .  S
C2023      O2024   1.283       .  A
C2025      C2026   1.418       .  A
C2025      C2587   1.492       .  S
C2026      C2027   1.411       .  A
C2026      H2031   1.082       .  S
C2027      C2629   1.501       .  S
C2028      C2029   1.387   1_554  A
C2028      H2032   1.084       .  S
C2029      C2030   1.404       .  A
C2029      C2601   1.481       .  S
C2030      H2033   1.082       .  S
C2034      C2035   1.427       .  A
C2034      C2039   1.419   1_455  A
C2035      C2036   1.418       .  A
C2035      H2040   1.082       .  S
C2036      C2037   1.404       .  A
C2036      C2058   1.502       .  S
C2037      C2038   1.404       .  A
C2037      H2041   1.086       .  S
C2038      C2039   1.408   1_455  A
C2038      C2085   1.489   1_455  S
C2039      H2042   1.084       .  S
O2043      C2059   1.278       .  A
O2043     Zn2049   2.024       .  S
C2044      C2576   1.503       .  S
C2044      O2060   1.284       .  A
C2044      O2057   1.271       .  A
O2045      C2058   1.285       .  A
O2045     Cd2052   2.127       .  S
O2046      C2064   1.262       .  A
O2046     Cd2055   1.990       .  S
O2047      C2061   1.284       .  A
O2047     Cd2051   2.148       .  S
O2048      C2059   1.289       .  A
O2048     Cd2051   2.155       .  S
Zn2049     O2060   2.090       .  S
Zn2049     O2062   2.064       .  S
Zn2049     O2054   1.910       .  S
O2050      C2061   1.263       .  A
O2050     Cd2055   2.024       .  S
Cd2051     O2053   2.120       .  S
Cd2051     O2054   2.008       .  S
Cd2052     O2056   2.142       .  S
Cd2052     O2065   2.131       .  S
Cd2052     O2054   1.995       .  S
O2053      C2063   1.287       .  A
O2054     Cd2055   1.937       .  S
Cd2055     O2057   2.029       .  S
O2056      C2063   1.292       .  A
C2058      O2062   1.284       .  A
C2059      C2079   1.496       .  S
C2061      C2559   1.497       .  S
C2064      C2545   1.503       .  S
C2064      O2065   1.281       .  A
C2066      C2067   1.418       .  A
C2066      C2071   1.403       .  A
C2066      C2517   1.490       .  S
C2067      C2068   1.415       .  A
C2067      H2072   1.083       .  S
C2068      C2069   1.396       .  A
C2068      C2562   1.501       .  S
C2069      C2070   1.387       .  A
C2069      H2073   1.085       .  S
C2070      C2071   1.395       .  A
C2070      C2531   1.469       .  S
C2071      H2074   1.085       .  S
C2075      C2076   1.423       .  A
C2075      C2080   1.421       .  A
C2075      C2146   1.505       .  S
C2076      C2077   1.416       .  A
C2076      H2081   1.081       .  S
C2077      C2078   1.409       .  A
C2077      C2099   1.505   1_455  S
C2078      C2079   1.406       .  A
C2078      H2082   1.085       .  S
C2079      C2080   1.409       .  A
C2080      H2083   1.084       .  S
O2084      C2100   1.283       .  A
O2084     Zn2090   2.101       .  S
C2085      O2101   1.278       .  A
C2085      O2098   1.286       .  A
O2086      C2099   1.287       .  A
O2086     Cd2093   2.143       .  S
O2087      C2105   1.287       .  A
O2087     Cd2096   2.130       .  S
O2088      C2102   1.263       .  A
O2088     Cd2092   2.025       .  S
O2089      C2100   1.266       .  A
O2089     Cd2092   2.007       .  S
Zn2090     O2101   2.019       .  S
Zn2090     O2103   2.050       .  S
Zn2090     O2095   1.926       .  S
O2091      C2102   1.282       .  A
O2091     Cd2096   2.147       .  S
Cd2092     O2094   1.985       .  S
Cd2092     O2095   1.934       .  S
Cd2093     O2097   2.131       .  S
Cd2093     O2106   2.118       .  S
Cd2093     O2095   2.005       .  S
O2094      C2104   1.262       .  A
O2095     Cd2096   2.016       .  S
Cd2096     O2098   2.139       .  S
O2097      C2104   1.281       .  A
C2099      O2103   1.282       .  A
C2100      C2503   1.493       .  S
C2102      C2489   1.499       .  S
C2104      C2604   1.482       .  S
C2105      C2116   1.503   1_655  S
C2105      O2106   1.287       .  A
C2107      C2108   1.420   1_545  A
C2107      C2112   1.404       .  A
C2107      C2475   1.496       .  S
C2108      C2109   1.417       .  A
C2108      H2113   1.082       .  S
C2109      C2110   1.396       .  A
C2109      C2492   1.502       .  S
C2110      C2111   1.391       .  A
C2110      H2114   1.085       .  S
C2111      C2112   1.397   1_565  A
C2111      C2615   1.475       .  S
C2112      H2115   1.083       .  S
C2116      C2117   1.419   1_455  A
C2116      C2121   1.421       .  A
C2117      C2118   1.407   1_655  A
C2117      H2122   1.084       .  S
C2118      C2119   1.405       .  A
C2119      C2120   1.407       .  A
C2119      H2123   1.085       .  S
C2120      C2121   1.418       .  A
C2120      C2140   1.500       .  S
C2121      H2124   1.083       .  S
O2125      C2141   1.287       .  A
C2126      O2142   1.278   1_554  A
C2126      O2139   1.285   1_554  A
O2127      C2140   1.285       .  A
O2128      C2146   1.285       .  A
O2128     Cd2137   2.121       .  S
O2129      C2143   1.262       .  A
O2129     Cd2133   2.016       .  S
O2130     Cd2133   2.011       .  S
Zn2131     O2142   2.015       .  S
Zn2131     O2136   1.920       .  S
O2132      C2143   1.281       .  A
O2132     Cd2137   2.125       .  S
Cd2133     O2135   1.980       .  S
Cd2133     O2136   1.916       .  S
Cd2134     O2138   2.104       .  S
Cd2134     O2147   2.126       .  S
Cd2134     O2136   1.990       .  S
O2135      C2145   1.262       .  A
O2136     Cd2137   2.001       .  S
Cd2137     O2139   2.125       .  S
O2138      C2145   1.278       .  A
C2140      O2144   1.287       .  A
C2141      C2464   1.506       .  S
C2143      C2450   1.485       .  S
C2145      C2534   1.468       .  S
C2146      O2147   1.287       .  A
C2148      C2153   1.407       .  A
C2148      C2433   1.489       .  S
C2149      C2150   1.411       .  A
C2149      H2154   1.081       .  S
C2150      C2151   1.397       .  A
C2150      C2548   1.499       .  S
C2151      H2155   1.085       .  S
C2152      C2153   1.401       .  A
C2152      C2447   1.488       .  S
C2153      H2156   1.084       .  S
C2157      C2158   1.417       .  A
C2157      C2162   1.425       .  A
C2157      C2228   1.511       .  S
C2158      C2159   1.411       .  A
C2158      H2163   1.083       .  S
C2159      C2160   1.399       .  A
C2160      C2161   1.400       .  A
C2160      H2164   1.087       .  S
C2161      C2162   1.420       .  A
C2161      C2181   1.496       .  S
C2162      H2165   1.082       .  S
O2166      C2182   1.288       .  A
O2166     Zn2172   2.105       .  S
C2167      O2183   1.282       .  A
C2167      O2180   1.281       .  A
O2168      C2181   1.280       .  A
O2168     Cd2175   2.086       .  S
O2169      C2187   1.288       .  A
O2169     Cd2178   2.105       .  S
O2170      C2184   1.263       .  A
O2170     Cd2174   2.026       .  S
O2171      C2182   1.271       .  A
O2171     Cd2174   2.029       .  S
Zn2172     O2183   2.055       .  S
Zn2172     O2185   2.096       .  S
Zn2172     O2177   1.891       .  S
O2173      C2184   1.274       .  A
O2173     Cd2178   2.097       .  S
Cd2174     O2176   2.020       .  S
Cd2174     O2177   1.964       .  S
Cd2175     O2179   2.088       .  S
Cd2175     O2188   2.105       .  S
Cd2175     O2177   1.973       .  S
O2176      C2186   1.260       .  A
O2177     Cd2178   1.958       .  S
Cd2178     O2180   2.088       .  S
O2179      C2186   1.270       .  A
C2181      O2185   1.289       .  A
C2182      C2590   1.505       .  S
C2184      C2419   1.481       .  S
C2186      C2408   1.497       .  S
C2187      C2198   1.489       .  S
C2187      O2188   1.287       .  A
C2189      C2190   1.429       .  A
C2189      C2646   1.546       .  S
C2190      C2191   1.407       .  A
C2190      H2195   1.081       .  S
C2191      C2422   1.484       .  S
C2192      C2193   1.392       .  A
C2192      H2196   1.085       .  S
C2193      C2194   1.410       .  A
C2193      C2391   1.497       .  S
C2194      H2197   1.084       .  S
C2198      C2199   1.417       .  A
C2198      C2203   1.412       .  A
C2199      C2200   1.408       .  A
C2199      H2204   1.083       .  S
C2200      C2201   1.409       .  A
C2200      C2305   1.490       .  S
C2201      C2202   1.407       .  A
C2201      H2205   1.085       .  S
C2202      C2203   1.406       .  A
C2203      H2206   1.084       .  S
O2207      C2223   1.284       .  A
O2207     Zn2213   2.094       .  S
C2208      C2284   1.489       .  S
C2208      O2224   1.277       .  A
C2208      O2221   1.287       .  A
O2209      C2222   1.286   1_565  A
O2209     Cd2216   2.135       .  S
O2210      C2228   1.288       .  A
O2210     Cd2219   2.123       .  S
O2211      C2225   1.267       .  A
O2211     Cd2215   2.035       .  S
O2212      C2223   1.269       .  A
O2212     Cd2215   2.028       .  S
Zn2213     O2224   2.012       .  S
Zn2213     O2226   2.068   1_565  S
Zn2213     O2218   1.916       .  S
O2214      C2225   1.283       .  A
O2214     Cd2219   2.145       .  S
Cd2215     O2217   2.009       .  S
Cd2215     O2218   1.946       .  S
Cd2216     O2220   2.134       .  S
Cd2216     O2229   2.156       .  S
Cd2216     O2218   1.990       .  S
O2217      C2227   1.266       .  A
O2218     Cd2219   2.001       .  S
Cd2219     O2221   2.145       .  S
O2220      C2227   1.282       .  A
C2222      O2226   1.284       .  A
C2223      C2520   1.493       .  S
C2225      C2377   1.501       .  S
C2227      C2363   1.511   1_565  S
C2228      O2229   1.294       .  A
C2230      C2231   1.421       .  A
C2230      C2235   1.407       .  A
C2230      C2573   1.496       .  S
C2231      C2232   1.415       .  A
C2231      H2236   1.084       .  S
C2232      C2233   1.391       .  A
C2232      C2380   1.500       .  S
C2233      C2234   1.390       .  A
C2233      H2237   1.086       .  S
C2234      C2235   1.397       .  A
C2234      C2352   1.474       .  S
C2235      H2238   1.083       .  S
C2239      C2240   1.426       .  A
C2239      C2244   1.415       .  A
C2239      C2309   1.510       .  S
C2240      C2241   1.421       .  A
C2240      H2245   1.083       .  S
C2241      C2242   1.405       .  A
C2241      C2263   1.502       .  S
C2242      C2243   1.401       .  A
C2242      H2246   1.086       .  S
C2243      C2244   1.408       .  A
C2244      H2247   1.083       .  S
O2248      C2264   1.280   1_556  A
O2248     Zn2254   2.037       .  S
C2249      C2436   1.508       .  S
C2249      O2265   1.287       .  A
C2249      O2262   1.270       .  A
O2250      C2263   1.281       .  A
O2250     Cd2257   2.105       .  S
O2251      C2269   1.260       .  A
O2251     Cd2260   2.016       .  S
O2252      C2266   1.278       .  A
O2252     Cd2256   2.113       .  S
O2253      C2264   1.283   1_556  A
O2253     Cd2256   2.107       .  S
Zn2254     O2265   2.108       .  S
Zn2254     O2267   2.085       .  S
Zn2254     O2259   1.911       .  S
O2255      C2266   1.263       .  A
O2255     Cd2260   2.026       .  S
Cd2256     O2258   2.111       .  S
Cd2256     O2259   1.972       .  S
Cd2257     O2261   2.110       .  S
Cd2257     O2270   2.089       .  S
Cd2257     O2259   1.974       .  S
O2258      C2268   1.287       .  A
O2259     Cd2260   1.968       .  S
Cd2260     O2262   2.028       .  S
O2261      C2268   1.287       .  A
C2263      O2267   1.287       .  A
C2266      C2335   1.478       .  S
C2268      C2280   1.495       .  S
C2269      C2349   1.498       .  S
C2269      O2270   1.272       .  A
C2271      C2276   1.417       .  A
C2271      C2461   1.509       .  S
C2272      C2273   1.411       .  A
C2272      H2277   1.082       .  S
C2273      C2274   1.392       .  A
C2273      C2366   1.498       .  S
C2274      H2278   1.086       .  S
C2275      C2276   1.406       .  A
C2275      C2338   1.484   1_545  S
C2276      H2279   1.083   1_545  S
C2280      C2281   1.415       .  A
C2280      C2285   1.419       .  A
C2281      C2282   1.407       .  A
C2281      H2286   1.084       .  S
C2282      C2283   1.405       .  A
C2282      C2304   1.489       .  S
C2283      C2284   1.405       .  A
C2283      H2287   1.085       .  S
C2284      C2285   1.409       .  A
C2285      H2288   1.083       .  S
O2289      C2305   1.277       .  A
O2289     Zn2295   2.015       .  S
C2290      C2478   1.493       .  S
C2290      O2306   1.281       .  A
O2291      C2304   1.285       .  A
O2292      C2310   1.262       .  A
O2292     Cd2301   1.998       .  S
O2293      C2307   1.284       .  A
O2293     Cd2297   2.142       .  S
O2294      C2305   1.288       .  A
O2294     Cd2297   2.146       .  S
Zn2295     O2300   1.906       .  S
O2296      C2307   1.264       .  A
O2296     Cd2301   2.026       .  S
Cd2297     O2299   2.119       .  S
Cd2297     O2300   1.998       .  S
Cd2298     O2302   2.155       .  S
Cd2298     O2311   2.140       .  S
Cd2298     O2300   1.981       .  S
O2299      C2309   1.286       .  A
O2300     Cd2301   1.941       .  S
Cd2301     O2303   2.035       .  S
O2302      C2309   1.294       .  A
C2304      O2308   1.279       .  A
C2307      C2321   1.497       .  S
C2310      C2394   1.513       .  S
C2310      O2311   1.282       .  A
C2312      C2313   1.406       .  A
C2312      C2317   1.419       .  A
C2312      C2506   1.495       .  S
C2313      C2314   1.397       .  A
C2313      H2318   1.084       .  S
C2314      C2315   1.389       .  A
C2314      C2405   1.474       .  S
C2315      C2316   1.395       .  A
C2315      H2319   1.085       .  S
C2316      C2317   1.416       .  A
C2316      C2324   1.503       .  S
C2317      H2320   1.082       .  S
C2321      C2322   1.423       .  A
C2321      C2326   1.409       .  A
C2322      C2323   1.412       .  A
C2322      C2327   1.451       .  S
C2323      C2324   1.410       .  A
C2323      C2330   1.449       .  S
C2324      C2325   1.421       .  A
C2325      C2326   1.414       .  A
C2325      C2328   1.451       .  S
C2326      C2329   1.449       .  S
C2327      N2334   1.157       .  T
C2328      N2333   1.157       .  T
C2329      N2331   1.157       .  T
C2330      N2332   1.157       .  T
C2335      C2336   1.411       .  A
C2335      C2340   1.412       .  A
C2336      C2337   1.407       .  A
C2336      C2341   1.453       .  S
C2337      C2338   1.414       .  A
C2338      C2339   1.412       .  A
C2339      C2340   1.415       .  A
C2339      C2342   1.449   1_565  S
C2340      C2343   1.449       .  S
C2342      N2347   1.157       .  T
C2343      N2345   1.157       .  T
C2344      N2346   1.157       .  T
C2349      C2350   1.430       .  A
C2349      C2354   1.420       .  A
C2350      C2351   1.407       .  A
C2350      C2355   1.453       .  S
C2351      C2352   1.403       .  A
C2351      C2358   1.454       .  S
C2352      C2353   1.407       .  A
C2353      C2354   1.409       .  A
C2353      C2356   1.451       .  S
C2354      C2357   1.451       .  S
C2355      N2362   1.157       .  T
C2356      N2361   1.157       .  T
C2357      N2359   1.157       .  T
C2358      N2360   1.157       .  T
C2363      C2364   1.428   1_545  A
C2363      C2368   1.418       .  A
C2364      C2365   1.407   1_565  A
C2364      C2369   1.450       .  S
C2365      C2366   1.410       .  A
C2365      C2372   1.454       .  S
C2366      C2367   1.418       .  A
C2367      C2368   1.417       .  A
C2367      C2370   1.451       .  S
C2368      C2371   1.449       .  S
C2369      N2376   1.156       .  T
C2370      N2375   1.157       .  T
C2371      N2373   1.158       .  T
C2372      N2374   1.158   1_545  T
C2377      C2378   1.422       .  A
C2377      C2382   1.411       .  A
C2378      C2379   1.413       .  A
C2378      C2383   1.449       .  S
C2379      C2380   1.409       .  A
C2379      C2386   1.450       .  S
C2380      C2381   1.420       .  A
C2381      C2382   1.417       .  A
C2381      C2384   1.450       .  S
C2382      C2385   1.449       .  S
C2383      N2390   1.156       .  T
C2384      N2389   1.157       .  T
C2385      N2387   1.157       .  T
C2386      N2388   1.157       .  T
C2391      C2392   1.416       .  A
C2391      C2396   1.406       .  A
C2392      C2393   1.416       .  A
C2393      C2394   1.418       .  A
C2394      C2395   1.433       .  A
C2395      C2396   1.409       .  A
C2395      C2398   1.451       .  S
C2396      C2399   1.453       .  S
C2397      N2404   1.157   1_556  T
C2398      N2403   1.156       .  T
C2399      N2401   1.158       .  T
C2400      N2402   1.157       .  T
C2405      C2406   1.403       .  A
C2405      C2410   1.408       .  A
C2406      C2407   1.405       .  A
C2406      C2411   1.454       .  S
C2407      C2408   1.429       .  A
C2407      C2414   1.453       .  S
C2408      C2409   1.420       .  A
C2409      C2410   1.410       .  A
C2409      C2412   1.451       .  S
C2410      C2413   1.451       .  S
C2411      N2418   1.157       .  T
C2412      N2417   1.158       .  T
C2413      N2415   1.157       .  T
C2414      N2416   1.157       .  T
C2419      C2420   1.415       .  A
C2419      C2424   1.413       .  A
C2420      C2421   1.410       .  A
C2420      C2425   1.452       .  S
C2421      C2422   1.413       .  A
C2422      C2423   1.412       .  A
C2423      C2424   1.412       .  A
C2423      C2426   1.450       .  S
C2424      C2427   1.451       .  S
C2426      N2431   1.157       .  T
C2427      N2429   1.157       .  T
C2428      N2430   1.157       .  T
C2433      C2434   1.413       .  A
C2433      C2438   1.403       .  A
C2434      C2435   1.420       .  A
C2434      C2439   1.449   1_556  S
C2435      C2436   1.418       .  A
C2435      C2442   1.450       .  S
C2436      C2437   1.430       .  A
C2437      C2438   1.408       .  A
C2437      C2440   1.451       .  S
C2439      N2446   1.157       .  T
C2440      N2445   1.157       .  T
C2441      N2443   1.157       .  T
C2442      N2444   1.158       .  T
C2447      C2448   1.407       .  A
C2447      C2452   1.414       .  A
C2448      C2449   1.409       .  A
C2448      C2453   1.451       .  S
C2449      C2450   1.423       .  A
C2449      C2456   1.452       .  S
C2450      C2451   1.408       .  A
C2451      C2452   1.409       .  A
C2451      C2454   1.449       .  S
C2452      C2455   1.449       .  S
C2453      N2460   1.157       .  T
C2454      N2459   1.157       .  T
C2456      N2458   1.157       .  T
C2461      C2462   1.420   1_545  A
C2461      C2466   1.414       .  A
C2462      C2463   1.421       .  A
C2462      C2467   1.450       .  S
C2463      C2464   1.415   1_565  A
C2463      C2470   1.449       .  S
C2465      C2468   1.454   1_556  S
C2467      N2474   1.157       .  T
C2468      N2473   1.158       .  T
C2469      N2471   1.157       .  T
C2470      N2472   1.157       .  T
C2475      C2476   1.412       .  A
C2475      C2480   1.413   1_545  A
C2476      C2477   1.411       .  A
C2476      C2481   1.449       .  S
C2477      C2478   1.416       .  A
C2477      C2484   1.452       .  S
C2478      C2479   1.416   1_545  A
C2479      C2480   1.416       .  A
C2479      C2482   1.450       .  S
C2480      C2483   1.449       .  S
C2481      N2488   1.156       .  T
C2483      N2485   1.157       .  T
C2484      N2486   1.157       .  T
C2489      C2490   1.411       .  A
C2489      C2494   1.424       .  A
C2490      C2491   1.416       .  A
C2490      C2495   1.449       .  S
C2491      C2492   1.419       .  A
C2491      C2498   1.450   1_565  S
C2492      C2493   1.409       .  A
C2493      C2494   1.413       .  A
C2493      C2496   1.449       .  S
C2494      C2497   1.453       .  S
C2495      N2502   1.157       .  T
C2496      N2501   1.157       .  T
C2497      N2499   1.157       .  T
C2498      N2500   1.157       .  T
C2503      C2504   1.419       .  A
C2503      C2508   1.413       .  A
C2504      C2505   1.410       .  A
C2504      C2509   1.452       .  S
C2505      C2506   1.411       .  A
C2505      C2512   1.451       .  S
C2506      C2507   1.414       .  A
C2507      C2508   1.417       .  A
C2507      C2510   1.446       .  S
C2508      C2511   1.450       .  S
C2509      N2516   1.157       .  T
C2510      N2515   1.156       .  T
C2511      N2513   1.157       .  T
C2512      N2514   1.157       .  T
C2517      C2518   1.409       .  A
C2517      C2522   1.412       .  A
C2518      C2523   1.451       .  S
C2519      C2520   1.417       .  A
C2519      C2526   1.453       .  S
C2521      C2522   1.415       .  A
C2521      C2524   1.451       .  S
C2522      C2525   1.447       .  S
C2524      N2529   1.157       .  T
C2525      N2527   1.156       .  T
C2526      N2528   1.158       .  T
C2531      C2532   1.408       .  A
C2531      C2536   1.413       .  A
C2532      C2533   1.399       .  A
C2532      C2537   1.454       .  S
C2533      C2534   1.416       .  A
C2533      C2540   1.455       .  S
C2534      C2535   1.408       .  A
C2535      C2536   1.410       .  A
C2535      C2538   1.449       .  S
C2536      C2539   1.450       .  S
C2537      N2544   1.157       .  T
C2540      N2542   1.157       .  T
C2545      C2546   1.426       .  A
C2545      C2550   1.411       .  A
C2546      C2547   1.408       .  A
C2546      C2551   1.451       .  S
C2547      C2548   1.409       .  A
C2547      C2554   1.451       .  S
C2548      C2549   1.420       .  A
C2549      C2550   1.413       .  A
C2549      C2552   1.449       .  S
C2550      C2553   1.450       .  S
C2551      N2558   1.156       .  T
C2552      N2557   1.156       .  T
C2553      N2555   1.158       .  T
C2554      N2556   1.158       .  T
C2559      C2560   1.423       .  A
C2559      C2564   1.411       .  A
C2560      C2561   1.412       .  A
C2560      C2565   1.453       .  S
C2561      C2562   1.410       .  A
C2561      C2568   1.449       .  S
C2562      C2563   1.419       .  A
C2563      C2564   1.415       .  A
C2563      C2566   1.451       .  S
C2564      C2567   1.449       .  S
C2565      N2572   1.157       .  T
C2566      N2571   1.157       .  T
C2567      N2569   1.157       .  T
C2568      N2570   1.157       .  T
C2573      C2574   1.411       .  A
C2573      C2578   1.410       .  A
C2574      C2575   1.416       .  A
C2574      C2579   1.448       .  S
C2575      C2576   1.419       .  A
C2575      C2582   1.450       .  S
C2576      C2577   1.422       .  A
C2577      C2578   1.413       .  A
C2577      C2580   1.453       .  S
C2578      C2581   1.449       .  S
C2579      N2586   1.156       .  T
C2580      N2585   1.158       .  T
C2581      N2583   1.156       .  T
C2582      N2584   1.157       .  T
C2587      C2588   1.415       .  A
C2587      C2592   1.404       .  A
C2588      C2589   1.420       .  A
C2588      C2593   1.449       .  S
C2589      C2590   1.416       .  A
C2589      C2596   1.450       .  S
C2590      C2591   1.427       .  A
C2591      C2592   1.408       .  A
C2591      C2594   1.450       .  S
C2592      C2595   1.455       .  S
C2593      N2600   1.157       .  T
C2594      N2599   1.156       .  T
C2596      N2598   1.157       .  T
C2601      C2602   1.407       .  A
C2601      C2606   1.417       .  A
C2602      C2603   1.404       .  A
C2602      C2607   1.452       .  S
C2603      C2604   1.419       .  A
C2603      C2610   1.454       .  S
C2604      C2605   1.409       .  A
C2605      C2606   1.414       .  A
C2605      C2608   1.449       .  S
C2606      C2609   1.450       .  S
C2607      N2614   1.157       .  T
C2608      N2613   1.157       .  T
C2609      N2611   1.157       .  T
C2610      N2612   1.157       .  T
C2615      C2616   1.410   1_565  A
C2615      C2620   1.407       .  A
C2616      C2617   1.408       .  A
C2616      C2621   1.450       .  S
C2617      C2618   1.413   1_545  A
C2617      C2624   1.450       .  S
C2618      C2619   1.426       .  A
C2619      C2620   1.404       .  A
C2619      C2622   1.453       .  S
C2620      C2623   1.454       .  S
C2621      N2628   1.157       .  T
C2622      N2627   1.158       .  T
C2623      N2625   1.158       .  T
C2624      N2626   1.157       .  T
C2629      C2630   1.421       .  A
C2629      C2634   1.411       .  A
C2630      C2631   1.415       .  A
C2631      C2632   1.410       .  A
C2631      C2638   1.447       .  S
C2632      C2633   1.418       .  A
C2633      C2634   1.408       .  A
C2633      C2636   1.450       .  S
C2634      C2637   1.448       .  S
C2635      N2642   1.157       .  T
C2636      N2641   1.157       .  T
C2637      N2639   1.158       .  T
C2638      N2640   1.157       .  T
C2645      C2652   1.451       .  S
C2646      C2647   1.434       .  A
C2647      C2648   1.417       .  A
C2647      C2650   1.452       .  S
C2649      N2656   1.157       .  T
C2650      N2655   1.158       .  T
C2651      N2653   1.156   1_565  T
C2652      N2654   1.158       .  T
