geometry optimzed in LAMMPS
_audit_creation_date              2020-11-30 
_audit_creation_method            'lammps2cif' 
_symmetry_space_group_name_H-M    'P1' 
_symmetry_Int_Tables_number       1 
_symmetry_cell_setting            triclinic 
loop_ 
_symmetry_equiv_pos_as_xyz 
  x,y,z 
_cell_length_a                    30.823765994949664 
_cell_length_b                    30.80536705949372 
_cell_length_c                    30.097823990172603 
_cell_angle_alpha                 91.19562305421827 
_cell_angle_beta                  90.34144917844387 
_cell_angle_gamma                 89.48167460899597 
loop_ 
_atom_site_label 
_atom_site_type_symbol 
_atom_site_fract_x 
_atom_site_fract_y 
_atom_site_fract_z 
_atom_site_charge 
C1          C  0.71431009  0.76996747  0.77259669     0.02860
C2          C  0.73462876  0.73658017  0.79587018    -0.13290
C3          C  0.76965017  0.71254977  0.77719524     0.00360
C4          C  0.78684861  0.72706279  0.73658640    -0.11810
C5          C  0.76984821  0.76436865  0.71578012     0.02850
C6          C  0.73348454  0.78545384  0.73424989    -0.11230
H7          H  0.72051919  0.72780552  0.82718543     0.08450
H8          H  0.81182083  0.70853530  0.71954170     0.05980
H9          H  0.71872869  0.81284205  0.71773720     0.05830
C10         C  0.30793975  0.70924734  0.24265977     0.02860
C11         C  0.27471400  0.68042924  0.23089611    -0.13290
C12         C  0.24961440  0.68700782  0.19243821     0.00360
C13         C  0.25860223  0.72258967  0.16562048    -0.11810
C14         C  0.29144288  0.75174793  0.17767462     0.02850
C15         C  0.31632949  0.74462999  0.21576495    -0.11230
H16         H  0.26693232  0.65438065  0.25305004     0.08450
H17         H  0.23841770  0.72912596  0.13687211     0.05980
H18         H  0.34058061  0.76819265  0.22589982     0.05830
C19         C  0.70539322  0.72333357  0.18206208     0.02860
C20         C  0.67121255  0.74412831  0.20568723    -0.13290
C21         C  0.67908264  0.77961972  0.23508046     0.00360
C22         C  0.71827501  0.80196421  0.22998694    -0.11810
C23         C  0.75102171  0.78613281  0.20150019     0.02850
C24         C  0.74557325  0.74518920  0.18093656    -0.11230
H25         H  0.63868154  0.73250999  0.20206057     0.08450
H26         H  0.72435636  0.83109932  0.24944867     0.05980
H27         H  0.77348711  0.73037881  0.16501965     0.05830
C28         C  0.32696744  0.30025126  0.24199573     0.02860
C29         C  0.29888632  0.33437644  0.25383206    -0.13290
C30         C  0.26651185  0.32858596  0.28594819     0.00360
C31         C  0.26548077  0.28882852  0.30815032    -0.11810
C32         C  0.29597054  0.25604380  0.29876538     0.02850
C33         C  0.32681618  0.26185782  0.26572927    -0.11230
H34         H  0.30031078  0.36395606  0.23514760     0.08450
H35         H  0.23929503  0.28162330  0.33052087     0.05980
H36         H  0.34823345  0.23522059  0.25606717     0.05830
C37         C  0.71520460  0.28151336  0.28591134     0.02860
C38         C  0.74497005  0.25504723  0.30904380    -0.13290
C39         C  0.75744805  0.21422093  0.29200784     0.00360
C40         C  0.73521955  0.19650034  0.25547976    -0.11810
C41         C  0.70315180  0.22065156  0.23414377     0.02850
C42         C  0.69471481  0.26373682  0.24791154    -0.11230
H43         H  0.76166316  0.26750267  0.33833083     0.08450
H44         H  0.74494996  0.16520763  0.24150610     0.05980
H45         H  0.67461396  0.28356126  0.22691380     0.05830
C46         C  0.76565591  0.22693621  0.78215209     0.02860
C47         C  0.78629750  0.26290160  0.76333525    -0.13290
C48         C  0.76961845  0.28209127  0.72466891     0.00360
C49         C  0.73109514  0.26584393  0.70558602    -0.11810
C50         C  0.70971947  0.23046764  0.72399668     0.02850
C51         C  0.72734559  0.21114221  0.76212333    -0.11230
H52         H  0.81499582  0.27641409  0.77906197     0.08450
H53         H  0.71726162  0.28128590  0.67666783     0.05980
H54         H  0.71063854  0.18421702  0.77679644     0.05830
C55         C  0.22532843  0.71632116  0.70721481     0.02860
C56         C  0.25884196  0.68832048  0.72050342    -0.13290
C57         C  0.27450249  0.69031079  0.76429122     0.00360
C58         C  0.25473372  0.71860532  0.79515370    -0.11810
C59         C  0.22404253  0.75003499  0.78170931     0.02850
C60         C  0.21015212  0.74877962  0.73694690    -0.11230
H61         H  0.27336927  0.66583902  0.69660737     0.08450
H62         H  0.26591518  0.71760643  0.82925486     0.05980
H63         H  0.18823705  0.77330265  0.72444196     0.05830
Zr64       Zr  0.97615411  0.05529522  0.09375844     2.17510
O65         O  0.90180816  0.02935916  0.08802475    -0.51600
O66         O  0.96781119  0.08544799  0.17090019    -0.74800
O67         O  0.96680313  0.98627907  0.13440908    -0.81590
O68         O  0.94684259  0.12282430  0.99635985    -0.83330
O69         O  0.03427388  0.95843894  0.14766968    -0.78960
O70         O  0.92099490  0.10876324  0.06429156    -0.90590
O71         O  0.03315235  0.10985387  0.19558542    -0.76550
O72         O  0.04174800  0.05280357  0.13603228    -0.86050
O73         O  0.00884628  0.12481536  0.08634487    -0.85730
O74         O  0.02125127  0.99869007  0.05925290    -0.72490
O75         O  0.99227931  0.06112914  0.01533071    -0.84630
Zr76       Zr  0.13447676  0.07963295  0.02183306     2.26420
Zr77       Zr  0.08658888  0.99757602  0.10312340     2.06270
Zr78       Zr  0.02391485  0.13069745  0.00805506     2.10050
Zr79       Zr  0.07413541  0.12186419  0.13022036     1.78760
O80         O  0.02424452  0.13928161  0.92772371    -0.93430
O81         O  0.12735700  0.11115472  0.18934895    -0.41240
O82         O  0.08651855  0.13127184  0.05393809    -0.77870
O83         O  0.12144764  0.06714753  0.09961860    -0.96560
O84         O  0.10395046  0.00905941  0.02724485    -0.89860
O85         O  0.07185531  0.07833995  0.97495927    -0.92700
C86         C  0.99370181  0.09993699  0.20182281     1.01050
C87         C  0.91733807  0.12651456  0.02564324     1.13980
C88         C  0.99277296  0.95816087  0.15223991     1.04760
O89         O  0.12039490  0.99010075  0.17592963    -0.94860
O90         O  0.16258256  0.97971729  0.09088372    -0.90600
O91         O  0.19174431  0.03565084  0.05348553    -0.83750
C92         C  0.19463109  0.99915862  0.07308548     1.11400
O93         O  0.97090841  0.98125357  0.95568693    -0.96830
Zr94       Zr  0.04087712  0.00799907  0.98242922     1.88940
O95         O  0.15327852  0.04210551  0.95247643    -0.73480
O96         O  0.09196011  0.92069091  0.08285974    -0.52740
O97         O  0.04111410  0.92902575  0.98597264    -0.97420
O98         O  0.02669010  0.02296265  0.90421584    -0.54640
O99         O  0.10864001  0.98438302  0.94623530    -0.74000
C100        C  0.14436578  0.00380431  0.93760850     0.98340
O101        O  0.20544900  0.11070968  0.00750158    -0.62820
O102        O  0.98848373  0.20074435  0.00250804    -0.57620
O103        O  0.14316739  0.15858544  0.00712441    -0.94310
O104        O  0.07578454  0.18928271  0.00739707    -0.92730
O105        O  0.04341554  0.19311605  0.14849856    -0.93090
O106        O  0.12958110  0.17770661  0.13232177    -0.91870
C107        C  0.11727004  0.19191711  0.00550104     1.17190
H108        H  0.98980327  0.14792192  0.09667677     0.33130
H109        H  0.14821371  0.06712973  0.11645476     0.43980
H110        H  0.07967501  0.08489369  0.94486628     0.37510
H111        H  0.00681338  0.97110197  0.06105096     0.33990
H112        H  0.11903781  0.13235078  0.21304797     0.25780
H113        H  0.10082418  0.90629658  0.11063044     0.31710
H114        H  0.05049308  0.91879619  0.95610512     0.37620
H115        H  0.05012900  0.19785233  0.18044030     0.32080
H116        H  0.96801556  0.19874296  0.97709201     0.30960
H117        H  0.03548546  0.16890223  0.92341497     0.32640
H118        H  0.02650144  0.99408605  0.88914274     0.31610
H119        H  0.15280382  0.16617086  0.11265126     0.35610
H120        H  0.21978435  0.11360828  0.03693870     0.28340
H121        H  0.89212488  0.02598895  0.11906743     0.32570
H122        H  0.97719619  0.95531533  0.93676194     0.35420
H123        H  0.97016225  0.20238879  0.02926273     0.28040
H124        H  0.22204396  0.08760069  0.99157100     0.40910
H125        H  0.09823062  0.00081551  0.19726945     0.30960
H126        H  0.12031885  0.08253055  0.20167019     0.38580
H127        H  0.05334824  0.03653860  0.89303370     0.30430
H128        H  0.06175465  0.91118238  0.07748618     0.30490
H129        H  0.90421121  0.99937617  0.07571752     0.30760
C130        C  0.16230750  0.28805993  0.94894409     0.02860
C131        C  0.15983058  0.24548926  0.96423671    -0.13290
C132        C  0.13454783  0.23634603  0.00113234     0.00360
C133        C  0.11521939  0.27105734  0.02551382    -0.11810
C134        C  0.11743080  0.31417812  0.01086166     0.02850
C135        C  0.14167963  0.32232341  0.97252836    -0.11230
H136        H  0.17253734  0.21892851  0.94381664     0.08450
H137        H  0.09347358  0.26368412  0.05242529     0.05980
H138        H  0.14003616  0.35418909  0.95795406     0.05830
C139        C  0.92474923  0.13570454  0.29945304     0.02860
C140        C  0.93829123  0.12693926  0.25583621    -0.13290
C141        C  0.97826118  0.10668119  0.24790664     0.00360
C142        C  0.00497261  0.09558210  0.28447320    -0.11810
C143        C  0.99021212  0.10175349  0.32840479     0.02850
C144        C  0.95009210  0.12242918  0.33546147    -0.11230
H145        H  0.91805409  0.13676494  0.22815276     0.08450
H146        H  0.03569380  0.07913983  0.27864393     0.05980
H147        H  0.93761991  0.12639507  0.36892801     0.05830
C148        C  0.28430917  0.91591705  0.09083772     0.02860
C149        C  0.24445132  0.93815492  0.09452191    -0.13290
C150        C  0.23770536  0.97760860  0.07313958     0.00360
C151        C  0.27154089  0.99474214  0.04817630    -0.11810
C152        C  0.31082913  0.97214739  0.04287699     0.02850
C153        C  0.31712357  0.93249042  0.06399520    -0.11230
H154        H  0.21844251  0.92412014  0.11339505     0.08450
H155        H  0.26671407  0.02486430  0.03076573     0.05980
H156        H  0.34763202  0.91506320  0.06026820     0.05830
Zr157      Zr  0.86037870  0.59198943  0.46510153     2.17510
O158        O  0.79401497  0.62746254  0.49183389    -0.51600
O159        O  0.83736755  0.54726101  0.52869706    -0.74800
O160        O  0.80181208  0.56393335  0.41841995    -0.81590
O161        O  0.92099999  0.69868769  0.48807275    -0.83330
O162        O  0.83123204  0.51181159  0.37308189    -0.78960
O163        O  0.85304908  0.67150544  0.47973788    -0.90590
O164        O  0.89035660  0.50134944  0.55179783    -0.76550
O165        O  0.88982533  0.52007201  0.45884737    -0.86050
O166        O  0.92069327  0.58927827  0.51523747    -0.85730
O167        O  0.87957098  0.58249833  0.38708873    -0.72490
O168        O  0.91285435  0.64051722  0.43768114    -0.84630
Zr169      Zr  0.02215055  0.56417263  0.40478264     2.26420
Zr170      Zr  0.91047881  0.51054415  0.38272921     2.06270
Zr171      Zr  0.97176827  0.64036709  0.48836562     2.10050
Zr172      Zr  0.95202294  0.51841638  0.50655926     1.78760
O173        O  0.00248805  0.71277740  0.49582840    -0.93430
O174        O  0.94519300  0.43964250  0.50403188    -0.41240
O175        O  0.00385395  0.57023493  0.48207378    -0.77870
O176        O  0.97325646  0.50883721  0.43056730    -0.96560
O177        O  0.95995342  0.56313041  0.35762215    -0.89860
O178        O  0.99102737  0.63500880  0.41125819    -0.92700
C179        C  0.85168594  0.51656567  0.55384744     1.01050
C180        C  0.87993753  0.70320973  0.48514506     1.13980
C181        C  0.79869521  0.53430949  0.38796304     1.04760
O182        O  0.89665996  0.43626855  0.40439548    -0.94860
O183        O  0.96796670  0.47334958  0.33980808    -0.90600
O184        O  0.03424639  0.49972641  0.36023488    -0.83750
C185        C  0.00982621  0.47359630  0.33807084     1.11400
O186        O  0.88176320  0.69630807  0.36294261    -0.96830
Zr187      Zr  0.93087781  0.63371136  0.36116286     1.88940
O188        O  0.03846408  0.58459890  0.32872760    -0.73480
O189        O  0.89035525  0.49154463  0.30633107    -0.52740
O190        O  0.87981596  0.62776884  0.29914224    -0.97420
O191        O  0.96995438  0.69833470  0.33921455    -0.54640
O192        O  0.97459529  0.60727193  0.29884755    -0.74000
C193        C  0.01389827  0.59357410  0.29540258     0.98340
O194        O  0.09149686  0.53088288  0.42450559    -0.62820
O195        O  0.97019006  0.64690333  0.56917905    -0.57620
O196        O  0.07367184  0.62213454  0.42630009    -0.94310
O197        O  0.04925253  0.63375701  0.49537090    -0.92730
O198        O  0.97455524  0.54057350  0.58127818    -0.93090
O199        O  0.01727837  0.47937289  0.52919311    -0.91870
C200        C  0.07553374  0.64192774  0.46431848     1.17190
H201        H  0.91164909  0.59543388  0.54540117     0.33130
H202        H  0.98712335  0.48066571  0.42796955     0.43980
H203        H  0.01004702  0.65825178  0.40327255     0.37510
H204        H  0.85548683  0.58664362  0.36706399     0.33990
H205        H  0.94465476  0.43103342  0.53554439     0.25780
H206        H  0.86996980  0.46702855  0.30856574     0.31710
H207        H  0.89417814  0.64256808  0.27439141     0.37620
H208        H  0.96573152  0.51643263  0.60036716     0.32080
H209        H  0.00094836  0.65033816  0.57813679     0.30960
H210        H  0.01650501  0.71377748  0.52550587     0.32640
H211        H  0.95730496  0.70596067  0.31005487     0.31610
H212        H  0.03788824  0.48334203  0.50452950     0.35610
H213        H  0.09886923  0.54363949  0.45402958     0.28340
H214        H  0.78263876  0.60880052  0.51535607     0.32570
H215        H  0.88083119  0.70738149  0.33230683     0.35420
H216        H  0.95673735  0.67569417  0.57536571     0.28040
H217        H  0.08461558  0.50027534  0.43072913     0.40910
H218        H  0.86603324  0.43656474  0.41414851     0.30960
H219        H  0.91527247  0.43440401  0.49320380     0.38580
H220        H  0.99966484  0.68808875  0.33196950     0.30430
H221        H  0.87237001  0.51619111  0.29599988     0.30490
H222        H  0.77257135  0.62514120  0.46730880     0.30760
C223        C  0.71101509  0.46463433  0.34175284     0.02860
C224        C  0.67413745  0.48425928  0.36150855    -0.13290
C225        C  0.67668961  0.52568028  0.38219299     0.00360
C226        C  0.71748481  0.54519914  0.38710489    -0.11810
C227        C  0.75478517  0.52441532  0.36998324     0.02850
C228        C  0.74963819  0.48841077  0.34154413    -0.11230
H229        H  0.64412540  0.46648073  0.36366083     0.08450
H230        H  0.72064334  0.57392240  0.40822356     0.05980
H231        H  0.77749358  0.47600856  0.32351855     0.05830
C232        C  0.08989349  0.59519322  0.19810333     0.02860
C233        C  0.07144253  0.60364394  0.23975364    -0.13290
C234        C  0.03146196  0.58601871  0.25054053     0.00360
C235        C  0.00985920  0.55911189  0.21929671    -0.11810
C236        C  0.02935846  0.54841426  0.17817337     0.02850
C237        C  0.06959049  0.56670625  0.16783380    -0.11230
H238        H  0.08806143  0.62459024  0.26361657     0.08450
H239        H  0.97921885  0.54461785  0.22798648     0.05980
H240        H  0.08475075  0.55938777  0.13611580     0.05830
C241        C  0.84371200  0.80012591  0.54628381     0.02860
C242        C  0.83964342  0.75940131  0.52545686    -0.13290
C243        C  0.86526577  0.74830599  0.48923103     0.00360
C244        C  0.89077351  0.78013877  0.46928159    -0.11810
C245        C  0.89519591  0.82169672  0.48875150     0.02850
C246        C  0.87134255  0.83145006  0.52799931    -0.11230
H247        H  0.82182020  0.73410608  0.54184416     0.08450
H248        H  0.91133903  0.77052839  0.44161057     0.05980
H249        H  0.87584040  0.86213097  0.54556717     0.05830
Zr250      Zr  0.02122899  0.86133378  0.40161271     2.17510
O251        O  0.00201533  0.79074301  0.36934668    -0.51600
O252        O  0.95433456  0.83850004  0.43997914    -0.74800
O253        O  0.06560672  0.80391767  0.43457798    -0.81590
O254        O  0.96378662  0.91440485  0.31235216    -0.83330
O255        O  0.10650056  0.83474282  0.48966200    -0.78960
O256        O  0.01105881  0.85945885  0.31922467    -0.90590
O257        O  0.93202303  0.88923872  0.49072832    -0.76550
O258        O  0.02542195  0.89099434  0.47571544    -0.86050
O259        O  0.97143710  0.92122956  0.40523424    -0.85730
O260        O  0.09631964  0.88218311  0.41369401    -0.72490
O261        O  0.04731872  0.91273464  0.34980537    -0.84630
Zr262      Zr  0.07538410  0.02501845  0.43402713     2.26420
Zr263      Zr  0.09863172  0.91416474  0.48735828     2.06270
Zr264      Zr  0.99758083  0.97231146  0.35302626     2.10050
Zr265      Zr  0.97699828  0.95164748  0.47861603     1.78760
O266        O  0.02018138  0.99642525  0.28024198    -0.93430
O267        O  0.97809279  0.94030103  0.55850594    -0.41240
O268        O  0.00098649  0.00317971  0.42614016    -0.77870
O269        O  0.05014908  0.97563034  0.48995286    -0.96560
O270        O  0.12254435  0.96345747  0.43350320    -0.89860
O271        O  0.07195127  0.99383237  0.36063214    -0.92700
C272        C  0.92906708  0.85182758  0.47176257     1.01050
C273        C  0.98585622  0.88333676  0.29536423     1.13980
C274        C  0.09304826  0.80150626  0.46684696     1.04760
O275        O  0.07881688  0.90349793  0.56451147    -0.94860
O276        O  0.13995764  0.97342224  0.52400376    -0.90600
O277        O  0.11901229  0.04003557  0.49954678    -0.83750
C278        C  0.14171717  0.01542425  0.52468260     1.11400
O279        O  0.12331033  0.88273765  0.29759657    -0.96830
Zr280      Zr  0.12094366  0.93347644  0.36093452     1.88940
O281        O  0.14895198  0.04285009  0.41050649    -0.73480
O282        O  0.17390359  0.89399289  0.50233237    -0.52740
O283        O  0.18334084  0.88487297  0.36843360    -0.97420
O284        O  0.14157648  0.97172565  0.29409760    -0.54640
O285        O  0.17992223  0.97949343  0.38635826    -0.74000
C286        C  0.18210537  0.01906572  0.40013297     0.98340
O287        O  0.05468781  0.09360513  0.47040957    -0.62820
O288        O  0.92645439  0.99610200  0.32639061    -0.57620
O289        O  0.04704436  0.07605527  0.37809549    -0.94310
O290        O  0.98263229  0.04513690  0.37758044    -0.92730
O291        O  0.90453370  0.97578497  0.45713989    -0.93090
O292        O  0.95350465  0.01531632  0.52168090    -0.91870
C293        C  0.00765757  0.07438503  0.36407500     1.17190
H294        H  0.94208607  0.91264430  0.39814206     0.33130
H295        H  0.05182366  0.98958978  0.51894533     0.43980
H296        H  0.08009385  0.01425023  0.33834356     0.37510
H297        H  0.11616714  0.85797148  0.41055787     0.33990
H298        H  0.94716192  0.93973078  0.56717794     0.25780
H299        H  0.17292199  0.87522768  0.52861819     0.31710
H300        H  0.20714181  0.89943008  0.35276645     0.37620
H301        H  0.88531487  0.96542511  0.48086284     0.32080
H302        H  0.92421969  0.98610048  0.29499913     0.30960
H303        H  0.99306170  0.00057058  0.26302778     0.32640
H304        H  0.17053841  0.95980863  0.28626105     0.31610
H305        H  0.97431658  0.03820176  0.51388947     0.35610
H306        H  0.02549596  0.10057995  0.45850650     0.28340
H307        H  0.99507011  0.77232538  0.39488463     0.32570
H308        H  0.15356146  0.88271686  0.28673242     0.35420
H309        H  0.90549467  0.97803593  0.34239951     0.28040
H310        H  0.04918678  0.08625046  0.50173726     0.40910
H311        H  0.06824474  0.87326654  0.56523563     0.30960
H312        H  0.98821421  0.90993651  0.56174693     0.38580
H313        H  0.14754106  0.00191370  0.30409806     0.30430
H314        H  0.18233940  0.87428398  0.47738136     0.30490
H315        H  0.02946611  0.77844372  0.35740180     0.30760
C316        C  0.15043994  0.71265532  0.53087712     0.02860
C317        C  0.13929413  0.75357048  0.51458215    -0.13290
C318        C  0.11035811  0.75767908  0.47857633     0.00360
C319        C  0.09490543  0.71946155  0.45717881    -0.11810
C320        C  0.10557985  0.67808659  0.47353065     0.02850
C321        C  0.13342483  0.67515891  0.51041141    -0.11230
H322        H  0.15085147  0.78224882  0.53227351     0.08450
H323        H  0.07089575  0.72186933  0.43087060     0.05980
H324        H  0.13892784  0.64393463  0.52554888     0.05830
C325        C  0.27568770  0.09597885  0.39045268     0.02860
C326        C  0.23426436  0.07794904  0.38674782    -0.13290
C327        C  0.22559968  0.03780916  0.40516762     0.00360
C328        C  0.25860583  0.01580235  0.42845364    -0.11810
C329        C  0.29979099  0.03464574  0.43416060     0.02850
C330        C  0.30825592  0.07446064  0.41434508    -0.11230
H331        H  0.20899676  0.09477836  0.36850080     0.08450
H332        H  0.25164667  0.98506882  0.44367661     0.05980
H333        H  0.34043527  0.08818839  0.41678199     0.05830
C334        C  0.91940769  0.86897607  0.19787410     0.02860
C335        C  0.93436740  0.90288564  0.17093873    -0.13290
C336        C  0.97473451  0.92277852  0.18034958     0.00360
C337        C  0.99755079  0.90998922  0.21900870    -0.11810
C338        C  0.98138339  0.87753550  0.24679668     0.02850
C339        C  0.94571830  0.85393450  0.23257350    -0.11230
H340        H  0.91435341  0.91434824  0.14383331     0.08450
H341        H  0.02592849  0.92794382  0.22965248     0.05980
H342        H  0.93381671  0.82871317  0.25386794     0.05830
Zr343      Zr  0.60263235  0.45930711  0.84937614     2.17510
O344        O  0.63158168  0.47766494  0.77719556    -0.51600
O345        O  0.56231519  0.52533581  0.83100086    -0.74800
O346        O  0.56685568  0.42007949  0.78921515    -0.81590
O347        O  0.71010566  0.47718614  0.90946249    -0.83330
O348        O  0.51053567  0.38264917  0.81690436    -0.78960
O349        O  0.68165188  0.47005009  0.83994392    -0.90590
O350        O  0.50969157  0.54141313  0.88113432    -0.76550
O351        O  0.53151524  0.45714318  0.87970699    -0.86050
O352        O  0.60227451  0.50749142  0.91259361    -0.85730
O353        O  0.59078947  0.38361921  0.86417661    -0.72490
O354        O  0.65226190  0.42969454  0.90053212    -0.84630
Zr355      Zr  0.57491882  0.39664779  0.01165240     2.26420
Zr356      Zr  0.52011597  0.38319486  0.89697499     2.06270
Zr357      Zr  0.65328376  0.47695779  0.96315970     2.10050
Zr358      Zr  0.53186680  0.50183157  0.94527797     1.78760
O359        O  0.72441290  0.47380466  0.99841158    -0.93430
O360        O  0.45281332  0.50429312  0.94589928    -0.41240
O361        O  0.58350817  0.47217499  0.99564303    -0.77870
O362        O  0.51997247  0.42757827  0.96353472    -0.96560
O363        O  0.57315890  0.35345903  0.94529491    -0.89860
O364        O  0.64581487  0.40135650  0.98005688    -0.92700
C365        C  0.52798373  0.54624194  0.84368114     1.01050
C366        C  0.71391284  0.47410797  0.86721190     1.13980
C367        C  0.53259688  0.39718492  0.78447730     1.04760
O368        O  0.44452590  0.40482051  0.88738021    -0.94860
O369        O  0.48159244  0.34260644  0.95144311    -0.90600
O370        O  0.50901384  0.35571823  0.02095514    -0.83750
C371        C  0.48207359  0.33789098  0.99366838     1.11400
O372        O  0.70443047  0.35653131  0.86368547    -0.96830
Zr373      Zr  0.64341898  0.35541993  0.91498199     1.88940
O374        O  0.59908174  0.32196255  0.02397666    -0.73480
O375        O  0.50740063  0.30901024  0.87075106    -0.52740
O376        O  0.63528252  0.29664386  0.86007565    -0.97420
O377        O  0.70924741  0.33004292  0.95213392    -0.54640
O378        O  0.61992812  0.29461520  0.95669601    -0.74000
C379        C  0.60868201  0.29031172  0.99709087     0.98340
O380        O  0.54100348  0.41234370  0.08340138    -0.62820
O381        O  0.66585525  0.55485813  0.96866973    -0.57620
O382        O  0.63008967  0.41946016  0.06679253    -0.94310
O383        O  0.62980362  0.48491882  0.03869818    -0.92730
O384        O  0.55688653  0.57463748  0.96460155    -0.93090
O385        O  0.50038552  0.52905199  0.01456628    -0.91870
C386        C  0.64382556  0.45858109  0.06724509     1.17190
H387        H  0.60948170  0.53681216  0.90480089     0.33130
H388        H  0.49193509  0.42625173  0.97757507     0.43980
H389        H  0.66844694  0.39196876  0.00007721     0.37510
H390        H  0.59218413  0.36519818  0.83790446     0.33990
H391        H  0.44515495  0.53546180  0.94358225     0.25780
H392        H  0.47990019  0.31036901  0.85363339     0.31710
H393        H  0.65193066  0.27198664  0.87242423     0.37620
H394        H  0.53369306  0.59424047  0.95373048     0.32080
H395        H  0.66976048  0.56093004  0.00088078     0.30960
H396        H  0.73429931  0.50424572  0.00077380     0.32640
H397        H  0.71547278  0.30121095  0.93832733     0.31610
H398        H  0.50165280  0.50396575  0.03459329     0.35610
H399        H  0.55313542  0.44051019  0.09357847     0.28340
H400        H  0.60545901  0.48304273  0.75881320     0.32570
H401        H  0.71511956  0.32620121  0.86082606     0.35420
H402        H  0.69502398  0.55878638  0.95593092     0.28040
H403        H  0.51034743  0.41939473  0.07637153     0.40910
H404        H  0.44485095  0.42611018  0.86319127     0.30960
H405        H  0.44397211  0.49136478  0.91690129     0.38580
H406        H  0.70041842  0.32337386  0.98279704     0.30430
H407        H  0.53007087  0.30305425  0.84821010     0.30490
H408        H  0.64390154  0.45023388  0.76472550     0.30760
C409        C  0.44829852  0.38644699  0.69656120     0.02860
C410        C  0.47457934  0.37324888  0.73219343    -0.13290
C411        C  0.51555354  0.39103404  0.73881299     0.00360
C412        C  0.53495506  0.41278039  0.70396376    -0.11810
C413        C  0.51128197  0.42314730  0.66561238     0.02850
C414        C  0.46730715  0.41057910  0.66241418    -0.11230
H415        H  0.46130145  0.35306640  0.75767767     0.08450
H416        H  0.56749619  0.42511363  0.70851855     0.05980
H417        H  0.44746845  0.42179033  0.63508472     0.05830
C418        C  0.62430023  0.19277056  0.06763770     0.02860
C419        C  0.62484415  0.23544812  0.05312625    -0.13290
C420        C  0.60625944  0.24590020  0.01268036     0.00360
C421        C  0.58641680  0.21355092  0.98641349    -0.11810
C422        C  0.58379915  0.17066011  0.00135847     0.02850
C423        C  0.60333265  0.16033548  0.04237088    -0.11230
H424        H  0.64057073  0.26049249  0.07317352     0.08450
H425        H  0.57151152  0.22244048  0.95515512     0.05980
H426        H  0.60186134  0.12768129  0.05492152     0.05830
C427        C  0.80462421  0.53783042  0.84035330     0.02860
C428        C  0.76927213  0.51217157  0.82705602    -0.13290
C429        C  0.75873769  0.47621987  0.85155893     0.00360
C430        C  0.79049655  0.45707536  0.87864854    -0.11810
C431        C  0.82896226  0.47899477  0.88933827     0.02850
C432        C  0.83552189  0.52052143  0.87051380    -0.11230
H433        H  0.74446620  0.52595485  0.80569047     0.08450
H434        H  0.78204624  0.42828217  0.89670547     0.05980
H435        H  0.86228940  0.54050663  0.88181882     0.05830
Zr436      Zr  0.86265941  0.39338356  0.02042533     2.17510
O437        O  0.79257661  0.36467391  0.99658120    -0.51600
O438        O  0.84362652  0.43113872  0.95034627    -0.74800
O439        O  0.80436205  0.43041781  0.06116303    -0.81590
O440        O  0.92046679  0.28005244  0.01170783    -0.83330
O441        O  0.83469239  0.48709263  0.09905749    -0.78960
O442        O  0.85392969  0.31262342  0.01278796    -0.90590
O443        O  0.89580185  0.47760216  0.92902642    -0.76550
O444        O  0.89400024  0.46409972  0.02023627    -0.86050
O445        O  0.92503828  0.38794195  0.97383726    -0.85730
O446        O  0.88020980  0.41092369  0.09770225    -0.72490
O447        O  0.91117596  0.34439710  0.05584043    -0.84630
Zr448      Zr  0.02427563  0.42301337  0.08290332     2.26420
Zr449      Zr  0.91349051  0.48115486  0.09559117     2.06270
Zr450      Zr  0.97270012  0.33754144  0.00992436     2.10050
Zr451      Zr  0.95705643  0.45856242  0.97491180     1.78760
O452        O  0.01164757  0.27474562  0.03740772    -0.93430
O453        O  0.95653455  0.53741668  0.96959972    -0.41240
O454        O  0.00561514  0.40701520  0.00713810    -0.77870
O455        O  0.97723328  0.47696614  0.04998452    -0.96560
O456        O  0.96103829  0.42960073  0.12776862    -0.89860
O457        O  0.99201810  0.35367079  0.08536070    -0.92700
C458        C  0.85801385  0.46131213  0.92500593     1.01050
C459        C  0.87899339  0.27846717  0.01204449     1.13980
C460        C  0.80177596  0.46465491  0.08619382     1.04760
O461        O  0.90616025  0.55394743  0.06633879    -0.94860
O462        O  0.96758150  0.51776201  0.14246538    -0.90600
O463        O  0.03450784  0.48924180  0.12713492    -0.83750
C464        C  0.00911941  0.51656629  0.14712859     1.11400
O465        O  0.87606940  0.30260590  0.13611996    -0.96830
Zr466      Zr  0.92928903  0.36045752  0.13096440     1.88940
O467        O  0.04007447  0.40002197  0.15834654    -0.73480
O468        O  0.88938125  0.50723217  0.16853102    -0.52740
O469        O  0.88079741  0.37893211  0.19237992    -0.97420
O470        O  0.96267705  0.29333257  0.15699273    -0.54640
O471        O  0.97543480  0.38582789  0.19062240    -0.74000
C472        C  0.01571154  0.39527677  0.19245783     0.98340
O473        O  0.09324672  0.45703327  0.06590660    -0.62820
O474        O  0.97382177  0.30837184  0.93406001    -0.57620
O475        O  0.07859477  0.36725926  0.05722214    -0.94310
O476        O  0.04860424  0.33965363  0.99395230    -0.92730
O477        O  0.97518886  0.42940520  0.90142884    -0.93090
O478        O  0.02566242  0.48698611  0.94895695    -0.91870
C479        C  0.08008730  0.34316617  0.02145381     1.17190
H480        H  0.91736994  0.37822790  0.94411610     0.33130
H481        H  0.99151757  0.50476040  0.05037632     0.43980
H482        H  0.01259425  0.33318258  0.09733251     0.37510
H483        H  0.85542596  0.41059104  0.11705034     0.33990
H484        H  0.95720603  0.54298697  0.93732343     0.25780
H485        H  0.87076644  0.53291721  0.16284547     0.31710
H486        H  0.89313692  0.36360145  0.21821002     0.37620
H487        H  0.96886955  0.45342459  0.88094255     0.32080
H488        H  0.99031802  0.28074723  0.93614894     0.30960
H489        H  0.99601553  0.26648010  0.06456647     0.32640
H490        H  0.94981893  0.28882147  0.18659236     0.31610
H491        H  0.04409951  0.48902799  0.97596040     0.35610
H492        H  0.10150926  0.44491878  0.03639293     0.28340
H493        H  0.77576393  0.39005036  0.98607527     0.32570
H494        H  0.87254299  0.29717721  0.16819399     0.35420
H495        H  0.94361279  0.29937294  0.92774127     0.28040
H496        H  0.08585577  0.48773054  0.05998159     0.40910
H497        H  0.87534096  0.55632724  0.05716139     0.30960
H498        H  0.92699673  0.54650593  0.97883574     0.38580
H499        H  0.99327497  0.30057709  0.16369371     0.30430
H500        H  0.86933897  0.48481287  0.17918108     0.30490
H501        H  0.77783458  0.35622912  0.02420719     0.30760
C502        C  0.71287090  0.54169951  0.12287834     0.02860
C503        C  0.67586701  0.51729132  0.11244916    -0.13290
C504        C  0.67939527  0.47442957  0.09590416     0.00360
C505        C  0.72073571  0.45528723  0.09160244    -0.11810
C506        C  0.75827117  0.47986379  0.10082498     0.02850
C507        C  0.75376477  0.52210023  0.11876217    -0.11230
H508        H  0.64431307  0.53315225  0.11272460     0.08450
H509        H  0.72370374  0.42354328  0.07563232     0.05980
H510        H  0.78228350  0.54104561  0.12682238     0.05830
C511        C  0.09968112  0.40885519  0.28195965     0.02860
C512        C  0.07657466  0.43318831  0.31393178    -0.13290
C513        C  0.03221755  0.44286779  0.30747266     0.00360
C514        C  0.01132237  0.42756475  0.26874557    -0.11810
C515        C  0.03467698  0.40382555  0.23641067     0.02850
C516        C  0.07803142  0.39332172  0.24394515    -0.11230
H517        H  0.09350213  0.44571050  0.34306560     0.08450
H518        H  0.97793722  0.43690411  0.26218523     0.05980
H519        H  0.09528923  0.37377072  0.21932087     0.05830
C520        C  0.83210759  0.18327628  0.95417796     0.02860
C521        C  0.85650477  0.14927018  0.97367710    -0.13290
C522        C  0.88057755  0.15660328  0.01354060     0.00360
C523        C  0.88131887  0.19946610  0.03129055    -0.11810
C524        C  0.86069073  0.23418489  0.00906001     0.02850
C525        C  0.83355504  0.22505659  0.97317069    -0.11230
H526        H  0.85900711  0.11815880  0.95639833     0.08450
H527        H  0.90290883  0.20695402  0.05886610     0.05980
H528        H  0.81875826  0.25183587  0.95552635     0.05830
Zr529      Zr  0.40583578  0.97551058  0.92001468     2.17510
O530        O  0.41505470  0.90152694  0.94598849    -0.51600
O531        O  0.33024150  0.96694948  0.89411567    -0.74800
O532        O  0.36435480  0.96406029  0.98723606    -0.81590
O533        O  0.49636378  0.94607043  0.84915301    -0.83330
O534        O  0.34818871  0.03151602  0.01514092    -0.78960
O535        O  0.43027412  0.92016328  0.86517566    -0.90590
O536        O  0.30356001  0.03284633  0.87480015    -0.76550
O537        O  0.36391000  0.04037039  0.92583181    -0.86050
O538        O  0.41172161  0.00832431  0.84911392    -0.85730
O539        O  0.43848693  0.01845120  0.97954162    -0.72490
O540        O  0.48205282  0.99033331  0.91228586    -0.84630
Zr541      Zr  0.47350615  0.13282071  0.89996017     2.26420
Zr542      Zr  0.39586885  0.08403485  0.98299296     2.06270
Zr543      Zr  0.48805592  0.02395658  0.84240963     2.10050
Zr544      Zr  0.36741260  0.07275714  0.85572941     1.78760
O545        O  0.56652726  0.02714661  0.83317769    -0.93430
O546        O  0.31092774  0.12794665  0.86578027    -0.41240
O547        O  0.44204497  0.08574977  0.84611554    -0.77870
O548        O  0.39757322  0.11952891  0.91258188    -0.96560
O549        O  0.46990787  0.10069167  0.97102879    -0.89860
O550        O  0.51981641  0.07033576  0.89778508    -0.92700
C551        C  0.29865955  0.99305300  0.88451552     1.01050
C552        C  0.46777947  0.91639520  0.84686353     1.13980
C553        C  0.34374758  0.99014528  0.01360747     1.04760
O554        O  0.32623675  0.11889598  0.99846440    -0.94860
O555        O  0.40443780  0.15977380  0.00350022    -0.90600
O556        O  0.44028504  0.18910919  0.94592483    -0.83750
C557        C  0.42082430  0.19199303  0.98345115     1.11400
O558        O  0.53871458  0.96530477  0.99111744    -0.96830
Zr559      Zr  0.51326873  0.03679083  0.96835998     1.88940
O560        O  0.54100550  0.14995974  0.93874371    -0.73480
O561        O  0.41762475  0.08349032  0.06096078    -0.52740
O562        O  0.51049867  0.03395412  0.04915725    -0.97420
O563        O  0.58964102  0.02289118  0.95139449    -0.54640
O564        O  0.54921822  0.10222590  0.99445878    -0.74000
C565        C  0.55692730  0.13864927  0.97637110     0.98340
O566        O  0.49078051  0.20426067  0.87173920    -0.62820
O567        O  0.50197655  0.98810997  0.77125749    -0.57620
O568        O  0.48590494  0.14491345  0.81978263    -0.94310
O569        O  0.48449300  0.07855942  0.78526830    -0.92730
O570        O  0.34607042  0.03910284  0.78506150    -0.93090
O571        O  0.36602605  0.12624544  0.79726241    -0.91870
C572        C  0.48611537  0.12024612  0.78450660     1.17190
H573        H  0.40179950  0.98925969  0.82534768     0.33130
H574        H  0.38079960  0.14614726  0.91362963     0.43980
H575        H  0.54909719  0.07882115  0.89126459     0.37510
H576        H  0.43638194  0.00322435  0.00715865     0.33990
H577        H  0.28710535  0.11855416  0.84566769     0.25780
H578        H  0.39372968  0.09879239  0.07679526     0.31710
H579        H  0.53996023  0.04216920  0.05936085     0.37620
H580        H  0.31497421  0.04673634  0.78161220     0.32080
H581        H  0.52913247  0.97114207  0.77506375     0.30960
H582        H  0.57068817  0.04715119  0.80825462     0.32640
H583        H  0.60440764  0.02257749  0.98069504     0.31610
H584        H  0.38493476  0.14990761  0.80851833     0.35610
H585        H  0.46253250  0.21947279  0.86844228     0.28340
H586        H  0.38532522  0.88988284  0.94830492     0.32570
H587        H  0.55784538  0.97029334  0.01722750     0.35420
H588        H  0.47902506  0.96611576  0.76848997     0.28040
H589        H  0.50552585  0.21975909  0.89661800     0.40910
H590        H  0.30547834  0.10379836  0.97838248     0.30960
H591        H  0.29960301  0.12330560  0.89600997     0.38580
H592        H  0.60037917  0.04963771  0.93770932     0.30430
H593        H  0.41516179  0.05288874  0.06995143     0.30490
H594        H  0.42552007  0.90460633  0.97705447     0.30760
C595        C  0.53882526  0.16847469  0.68700412     0.02860
C596        C  0.52362771  0.16567527  0.73061940    -0.13290
C597        C  0.48850779  0.13944274  0.74008317     0.00360
C598        C  0.46404553  0.12118766  0.70490466    -0.12370
C599        C  0.47865680  0.12246344  0.66076866     0.02850
C600        C  0.51707748  0.14572208  0.65218889    -0.11230
H601        H  0.54297602  0.17893691  0.75782866     0.08450
H602        H  0.43713241  0.10037019  0.71272055     0.05980
H603        H  0.53169101  0.14345841  0.61957167     0.05830
C604        C  0.40467300  0.28220392  0.06989283     0.02860
C605        C  0.43125637  0.31424483  0.05237886    -0.13290
C606        C  0.45100500  0.30730383  0.01122195     0.00360
C607        C  0.44418945  0.26858168  0.98753298    -0.11810
C608        C  0.41980118  0.23522423  0.00553494     0.02850
C609        C  0.39957698  0.24239165  0.04672809    -0.11230
H610        H  0.43643816  0.34449392  0.07061128     0.08450
H611        H  0.46083998  0.26340312  0.95622931     0.05980
H612        H  0.38114073  0.21669908  0.06153845     0.05830
C613        C  0.20655854  0.91450107  0.87339727     0.02860
C614        C  0.17222706  0.93744738  0.89435733    -0.13290
C615        C  0.17844510  0.98044996  0.91071879     0.00360
C616        C  0.21981501  0.99944369  0.90575337    -0.11810
C617        C  0.25396735  0.97627684  0.88515821     0.02850
C618        C  0.24627954  0.93522369  0.86736638    -0.11230
H619        H  0.14165073  0.92129593  0.89945494     0.08450
H620        H  0.22628117  0.03141110  0.91980767     0.05980
H621        H  0.27238756  0.91844579  0.84991886     0.05830
Zr622      Zr  0.60153361  0.53919901  0.62747243     2.17510
O623        O  0.64038885  0.53800752  0.69850919    -0.51600
O624        O  0.56666566  0.47164100  0.64564280    -0.74800
O625        O  0.55644040  0.57092025  0.68544110    -0.81590
O626        O  0.68772660  0.48090832  0.56885597    -0.83330
O627        O  0.50421364  0.61572561  0.65865509    -0.78960
O628        O  0.67813481  0.51847891  0.63279388    -0.90590
O629        O  0.51069936  0.46123355  0.59742792    -0.76550
O630        O  0.53031073  0.54498008  0.59697700    -0.86050
O631        O  0.60047601  0.49344304  0.56246222    -0.85730
O632        O  0.58933373  0.61507554  0.61539668    -0.72490
O633        O  0.65485596  0.56807484  0.57970397    -0.84630
Zr634      Zr  0.57481926  0.60731970  0.46820754     2.26420
Zr635      Zr  0.51918164  0.61949308  0.58053365     2.06270
Zr636      Zr  0.65254591  0.52406497  0.51375956     2.10050
Zr637      Zr  0.52962031  0.50108650  0.53148025     1.78760
O638        O  0.72374654  0.54999116  0.49261983    -0.93430
O639        O  0.45060512  0.50127090  0.53348989    -0.41240
O640        O  0.58176324  0.53085381  0.48236996    -0.77870
O641        O  0.51894581  0.57605565  0.51359979    -0.96560
O642        O  0.57385539  0.64874893  0.53551641    -0.89860
O643        O  0.64556074  0.60056705  0.50073411    -0.92700
C644        C  0.53086911  0.45346651  0.63383917     1.01050
C645        C  0.70171137  0.49603013  0.60581412     1.13980
C646        C  0.52327653  0.59596652  0.69030457     1.04760
O647        O  0.44206226  0.60435537  0.58693430    -0.94860
O648        O  0.48064862  0.66197570  0.52640083    -0.90600
O649        O  0.50849607  0.64891148  0.45741796    -0.83750
C650        C  0.48115307  0.66684285  0.48419924     1.11400
O651        O  0.70419865  0.63818549  0.62050466    -0.96830
Zr652      Zr  0.64377720  0.64333411  0.56805158     1.88940
O653        O  0.59997319  0.68263418  0.46174537    -0.73480
O654        O  0.51352288  0.69372019  0.60965736    -0.52740
O655        O  0.63477898  0.69756254  0.62767448    -0.97420
O656        O  0.71035513  0.66917871  0.53440583    -0.54640
O657        O  0.62336241  0.70773648  0.52924267    -0.74000
C658        C  0.61114281  0.71343302  0.48920075     0.98340
O659        O  0.54248371  0.59943362  0.39405751    -0.62820
O660        O  0.68317924  0.45834485  0.47909375    -0.57620
O661        O  0.62908751  0.58083955  0.41382093    -0.94310
O662        O  0.62717197  0.51408973  0.43900527    -0.92730
O663        O  0.55227419  0.42782088  0.50952878    -0.93090
O664        O  0.49505105  0.47636596  0.46266414    -0.91870
C665        C  0.64112415  0.54087926  0.41125114     1.17190
H666        H  0.60713524  0.46352874  0.56898543     0.33130
H667        H  0.49109230  0.57841565  0.49894161     0.43980
H668        H  0.66767974  0.61078970  0.48104125     0.37510
H669        H  0.58973979  0.63126840  0.64319412     0.33990
H670        H  0.44266440  0.47030389  0.53560708     0.25780
H671        H  0.48461110  0.69554661  0.62377997     0.31710
H672        H  0.63554431  0.72600993  0.61303155     0.37620
H673        H  0.53032669  0.40870470  0.52264849     0.32080
H674        H  0.71206164  0.45367257  0.49281968     0.30960
H675        H  0.74107607  0.52381826  0.48465444     0.32640
H676        H  0.71569477  0.69776911  0.54898366     0.31610
H677        H  0.49754407  0.50123321  0.44253772     0.35610
H678        H  0.55614818  0.57339588  0.38011213     0.28340
H679        H  0.61891336  0.54344376  0.72215037     0.32570
H680        H  0.71495136  0.66812878  0.62515743     0.35420
H681        H  0.66517022  0.43447155  0.49019918     0.28040
H682        H  0.51224113  0.59021390  0.39909931     0.40910
H683        H  0.44017588  0.58184554  0.60983053     0.30960
H684        H  0.44327270  0.51398438  0.56299262     0.38580
H685        H  0.70249805  0.67630577  0.50345227     0.30430
H686        H  0.53441738  0.69530090  0.63473775     0.30490
H687        H  0.65785081  0.56487412  0.69911756     0.30760
C688        C  0.61057873  0.80566184  0.41082060     0.02860
C689        C  0.58729361  0.83778966  0.43500751    -0.13290
C690        C  0.57522267  0.83063058  0.47970420     0.00360
C691        C  0.58547906  0.79026958  0.49864713    -0.11810
C692        C  0.60811522  0.75831816  0.47411893     0.02850
C693        C  0.62321182  0.76754889  0.43223818    -0.11230
H694        H  0.57651514  0.86685045  0.41843301     0.08450
H695        H  0.57384010  0.78265113  0.53145855     0.05980
H696        H  0.64192891  0.74277004  0.41455122     0.05830
C697        C  0.44462785  0.61657003  0.78415174     0.02860
C698        C  0.46560414  0.59421839  0.81860214    -0.13290
C699        C  0.50719502  0.57579308  0.81158790     0.00360
C700        C  0.52709252  0.58079206  0.77048201    -0.11810
C701        C  0.50532816  0.60048001  0.73532636     0.02850
C702        C  0.46454756  0.61944243  0.74266947    -0.11230
H703        H  0.44908851  0.59020794  0.84989845     0.08450
H704        H  0.55884542  0.56662101  0.76488372     0.05980
H705        H  0.44721228  0.63478843  0.71567035     0.05830
C706        C  0.80384026  0.44147309  0.64190109     0.02860
C707        C  0.83416901  0.46112141  0.61351079    -0.13290
C708        C  0.82144284  0.49655269  0.58652367     0.00360
C709        C  0.77792781  0.51035792  0.58807336    -0.11810
C710        C  0.74775097  0.48966187  0.61494156     0.02850
C711        C  0.76094835  0.45659837  0.64261967    -0.11230
H712        H  0.86687468  0.44810717  0.61168486     0.08450
H713        H  0.76665362  0.53581402  0.56650121     0.05980
H714        H  0.73682693  0.43983160  0.66181775     0.05830
Zr715      Zr  0.39799580  0.02962892  0.55560683     2.17510
O716        O  0.40529986  0.10332749  0.52873702    -0.51600
O717        O  0.32406548  0.04170883  0.58301157    -0.74800
O718        O  0.35591421  0.03983658  0.48773715    -0.81590
O719        O  0.49034382  0.05186980  0.63544275    -0.83330
O720        O  0.33684175  0.97277709  0.46157571    -0.78960
O721        O  0.42963779  0.08453191  0.60925495    -0.90590
O722        O  0.29344783  0.97573857  0.59202005    -0.76550
O723        O  0.35592602  0.96548786  0.54567498    -0.86050
O724        O  0.39439349  0.99527971  0.62523154    -0.85730
O725        O  0.43308013  0.98619890  0.49789566    -0.72490
O726        O  0.47204378  0.01137207  0.57100086    -0.84630
Zr727      Zr  0.46240574  0.86989645  0.57935250     2.26420
Zr728      Zr  0.39018577  0.92145786  0.49040870     2.06270
Zr729      Zr  0.46857520  0.97769803  0.64113159     2.10050
Zr730      Zr  0.35291927  0.93070908  0.61464300     1.78760
O731        O  0.53938869  0.98296715  0.67715824    -0.93430
O732        O  0.29453620  0.88070730  0.59554118    -0.41240
O733        O  0.42601422  0.91426922  0.63300823    -0.77870
O734        O  0.38735782  0.88466543  0.56023563    -0.96560
O735        O  0.46323026  0.90299748  0.50863846    -0.89860
O736        O  0.50621670  0.93277956  0.58783315    -0.92700
C737        C  0.29105557  0.01668306  0.58702117     1.01050
C738        C  0.46569588  0.08504806  0.63177511     1.13980
C739        C  0.33312138  0.01437628  0.46272175     1.04760
O740        O  0.32566210  0.88524147  0.46166174    -0.94860
O741        O  0.40066616  0.84485610  0.47174268    -0.90600
O742        O  0.43030866  0.81414524  0.53290670    -0.83750
C743        C  0.41458529  0.81202099  0.49344820     1.11400
O744        O  0.53651986  0.03715075  0.50231124    -0.96830
Zr745      Zr  0.50650454  0.96573368  0.51638639     1.88940
O746        O  0.53014555  0.85062216  0.54121736    -0.73480
O747        O  0.41848569  0.92876553  0.41556580    -0.52740
O748        O  0.50918914  0.97571082  0.43631919    -0.97420
O749        O  0.58263945  0.97116750  0.53864135    -0.54640
O750        O  0.54054748  0.89972955  0.48755114    -0.74000
C751        C  0.54729418  0.86244794  0.50453930     0.98340
O752        O  0.47816366  0.79806995  0.60849623    -0.62820
O753        O  0.43295934  0.01307018  0.70434017    -0.57620
O754        O  0.47654877  0.85600431  0.65886788    -0.94310
O755        O  0.47833077  0.92172664  0.69452756    -0.92730
O756        O  0.32889637  0.96181826  0.68551401    -0.93090
O757        O  0.34280757  0.87551431  0.67030037    -0.91870
C758        C  0.47969658  0.88021112  0.69424410     1.17190
H759        H  0.38084433  0.01491487  0.64646580     0.33130
H760        H  0.37028656  0.85861373  0.55753052     0.43980
H761        H  0.53487697  0.92522035  0.59840972     0.37510
H762        H  0.43274251  0.00185505  0.47041934     0.33990
H763        H  0.26982619  0.89044735  0.61423724     0.25780
H764        H  0.40584993  0.90409536  0.39848112     0.31710
H765        H  0.53854518  0.96559371  0.42750501     0.37620
H766        H  0.29682477  0.96062014  0.68410577     0.32080
H767        H  0.42323623  0.98936928  0.72349638     0.30960
H768        H  0.53902528  0.01122110  0.69344982     0.32640
H769        H  0.59877532  0.97252839  0.51036182     0.31610
H770        H  0.36302442  0.85175019  0.66145705     0.35610
H771        H  0.44990009  0.78311040  0.60975219     0.28340
H772        H  0.37527359  0.11473499  0.52606217     0.32570
H773        H  0.55759497  0.03291177  0.47787651     0.35420
H774        H  0.45645286  0.02784740  0.72086195     0.28040
H775        H  0.49449153  0.78246316  0.58476683     0.40910
H776        H  0.30311322  0.89127122  0.48429897     0.30960
H777        H  0.28577960  0.88832321  0.56496382     0.38580
H778        H  0.59067803  0.94241486  0.55040740     0.30430
H779        H  0.40361832  0.95472915  0.40372102     0.30490
H780        H  0.41565765  0.09992349  0.49776627     0.30760
C781        C  0.40007232  0.72087355  0.40824776     0.02860
C782        C  0.42815582  0.68931271  0.42557204    -0.13290
C783        C  0.44926797  0.69725607  0.46610842     0.00360
C784        C  0.44199870  0.73635726  0.48917661    -0.11810
C785        C  0.41528640  0.76880852  0.47147444     0.02850
C786        C  0.39381186  0.76064242  0.43107765    -0.11230
H787        H  0.43361760  0.65897349  0.40748474     0.08450
H788        H  0.45969019  0.74241718  0.51986884     0.05980
H789        H  0.37314002  0.78539364  0.41675028     0.05830
C790        C  0.20253719  0.10038676  0.59537857     0.02860
C791        C  0.16881137  0.08013154  0.57076240    -0.13290
C792        C  0.17416438  0.03679192  0.55443755     0.00360
C793        C  0.21377765  0.01515104  0.56202011    -0.11810
C794        C  0.24758919  0.03604603  0.58487764     0.02850
C795        C  0.24097539  0.07713854  0.60309187    -0.11230
H796        H  0.13932647  0.09809433  0.56356829     0.08450
H797        H  0.21942786  0.98310930  0.54748750     0.05980
H798        H  0.26699412  0.09179725  0.62246634     0.05830
C799        C  0.53960977  0.83423219  0.79009222     0.02860
C800        C  0.51763346  0.85543969  0.82540773    -0.13290
C801        C  0.47900896  0.87892408  0.81752599     0.00360
C802        C  0.46204840  0.87940976  0.77419035    -0.11810
C803        C  0.48541321  0.86098333  0.73831568     0.02850
C804        C  0.52275703  0.83655790  0.74674995    -0.11230
H805        H  0.53231892  0.85669466  0.85818229     0.08450
H806        H  0.43461471  0.90058072  0.76724047     0.05980
H807        H  0.54178164  0.82405357  0.71902688     0.05830
C808        C  0.22225700  0.29570963  0.76792929     0.02860
C809        C  0.25020359  0.32833226  0.75436966    -0.13290
C810        C  0.27148530  0.32551787  0.71306681     0.00360
C811        C  0.25750081  0.29305870  0.68264434    -0.11810
C812        C  0.22844640  0.26025763  0.69486528     0.02850
C813        C  0.21150886  0.26175941  0.73822921    -0.11230
H814        H  0.25650700  0.35485475  0.77751507     0.08450
H815        H  0.27031453  0.29193329  0.64971563     0.05980
H816        H  0.19121557  0.23581236  0.74970168     0.05830
C817        C  0.17773147  0.20200548  0.66523570    -0.26580
C818        C  0.21849195  0.22271266  0.66373572    -0.14660
C819        C  0.24994779  0.20545654  0.63395656     0.35970
C820        C  0.23966696  0.17034997  0.60601993    -0.26030
C821        C  0.20168370  0.14638761  0.61182385    -0.15270
C822        C  0.16971969  0.16298146  0.64103771     0.37060
N823        N  0.13032875  0.13941478  0.64758741    -0.89520
H824        H  0.15274365  0.21497000  0.68700478     0.18170
H825        H  0.26441888  0.15822893  0.58336276     0.18160
N826        N  0.29390588  0.22024410  0.63457056    -0.88550
H827        H  0.11021704  0.15610555  0.67011663     0.35540
H828        H  0.13861838  0.10999110  0.66226845     0.40640
H829        H  0.30175346  0.23011158  0.60258673     0.40260
H830        H  0.31419774  0.19411290  0.64253953     0.35150
C831        C  0.37605660  0.36850532  0.66057944    -0.26580
C832        C  0.40049501  0.37863156  0.69885979    -0.14660
C833        C  0.37878695  0.38061582  0.74006134     0.35970
C834        C  0.33696223  0.36431742  0.74348309    -0.26030
C835        C  0.31294634  0.35043137  0.70588398    -0.15270
C836        C  0.33189911  0.35678134  0.66344294     0.37060
N837        N  0.30650131  0.35248378  0.62346540    -0.89520
H838        H  0.39135362  0.36943094  0.62832993     0.18170
H839        H  0.32458289  0.36161644  0.77674443     0.18160
N840        N  0.39890075  0.39943607  0.77892610    -0.88550
H841        H  0.32520738  0.35879659  0.59550153     0.35540
H842        H  0.28211033  0.37626534  0.62486326     0.40640
H843        H  0.37947858  0.42534862  0.79019417     0.40260
H844        H  0.39969747  0.37612126  0.80370124     0.35150
C845        C  0.16263531  0.29534457  0.82326277    -0.26580
C846        C  0.20720312  0.29545025  0.81462112    -0.14660
C847        C  0.23705472  0.29476411  0.85047855     0.35970
C848        C  0.22151754  0.29422104  0.89429194    -0.26030
C849        C  0.17690914  0.29405605  0.90287424    -0.15270
C850        C  0.14700021  0.29456380  0.86683038     0.37060
N851        N  0.10076566  0.29264882  0.87280941    -0.89520
H852        H  0.13972094  0.29553187  0.79580338     0.18170
H853        H  0.24422892  0.29280429  0.92186904     0.18160
N854        N  0.28295364  0.29350401  0.84217458    -0.88550
H855        H  0.08742039  0.32181231  0.86166751     0.35540
H856        H  0.09211750  0.29013359  0.90607471     0.40640
H857        H  0.28999624  0.26421406  0.82545411     0.40260
H858        H  0.30040842  0.29313828  0.87206449     0.35150
C859        C  0.23292436  0.72171897  0.62524957    -0.26580
C860        C  0.20669921  0.71253693  0.66184756    -0.14660
C861        C  0.16292148  0.70049738  0.65453173     0.35970
C862        C  0.14627949  0.69969646  0.61117299    -0.26030
C863        C  0.17206586  0.71000540  0.57473725    -0.15270
C864        C  0.21614159  0.72080864  0.58175262     0.37060
N865        N  0.24478714  0.73052728  0.54582901    -0.89520
H866        H  0.26657360  0.73042473  0.63062444     0.18170
H867        H  0.11244107  0.69159568  0.60591029     0.18160
N868        N  0.13433531  0.68891149  0.68995206    -0.88550
H869        H  0.25377876  0.76305070  0.54953858     0.35540
H870        H  0.22939115  0.72725542  0.51498162     0.40640
H871        H  0.15013430  0.68864840  0.72065961     0.40260
H872        H  0.12439630  0.65697656  0.68377937     0.35150
C873        C  0.24453926  0.80189751  0.84301820    -0.26580
C874        C  0.21264389  0.78752209  0.81251329    -0.14660
C875        C  0.17314524  0.81190718  0.81017186     0.35970
C876        C  0.17021280  0.85280935  0.83187130    -0.26030
C877        C  0.20402458  0.86802911  0.85924938    -0.15270
C878        C  0.23937034  0.84009131  0.86818504     0.37060
N879        N  0.27129112  0.85195578  0.90129518    -0.89520
H880        H  0.27509001  0.78479992  0.84625886     0.18170
H881        H  0.14176093  0.87301822  0.82665225     0.18160
N882        N  0.13501109  0.79585692  0.78792426    -0.88550
H883        H  0.29552207  0.82812248  0.90358618     0.35540
H884        H  0.25568451  0.85332479  0.93204386     0.40640
H885        H  0.13776332  0.76279361  0.78006481     0.40260
H886        H  0.13056135  0.81319135  0.75873023     0.35150
C887        C  0.36516495  0.60707076  0.78035122    -0.26580
C888        C  0.40039674  0.63465024  0.78892747    -0.14660
C889        C  0.39314840  0.67991668  0.79322157     0.35970
C890        C  0.35120758  0.69646965  0.78693121    -0.26030
C891        C  0.31624919  0.66918845  0.77608361    -0.15270
C892        C  0.32312123  0.62373212  0.77380568     0.37060
N893        N  0.28857500  0.59366215  0.76502034    -0.89520
H894        H  0.37075248  0.57238861  0.77667647     0.18170
H895        H  0.34620092  0.73135689  0.78866417     0.18160
N896        N  0.42767013  0.71014314  0.80190684    -0.88550
H897        H  0.29436941  0.57884022  0.73403244     0.35540
H898        H  0.25849748  0.60934405  0.76309136     0.40640
H899        H  0.45734401  0.69430421  0.80671823     0.40260
H900        H  0.42072965  0.72645500  0.83187391     0.35150
C901        C  0.63293552  0.24521267  0.70096249    -0.26580
C902        C  0.66740306  0.21537688  0.70524236    -0.14660
C903        C  0.66019071  0.17119814  0.69443814     0.35970
C904        C  0.61809902  0.15736059  0.68285262    -0.26030
C905        C  0.58293694  0.18666970  0.68210231    -0.15270
C906        C  0.59083609  0.23146189  0.68976737     0.37060
N907        N  0.55656412  0.26345218  0.68894843    -0.89520
H908        H  0.63820082  0.27926271  0.70882709     0.18170
H909        H  0.61203324  0.12300804  0.67772758     0.18160
N910        N  0.69534720  0.14034688  0.69682321    -0.88550
H911        H  0.56412759  0.28566171  0.66442313     0.35540
H912        H  0.52711111  0.24960066  0.67925295     0.40640
H913        H  0.71810595  0.14860547  0.67288172     0.40260
H914        H  0.68461591  0.10913432  0.68836833     0.35150
C915        C  0.75354275  0.20063649  0.85946814    -0.26580
C916        C  0.78239523  0.20754653  0.82427614    -0.14660
C917        C  0.82685975  0.19746197  0.83050424     0.35970
C918        C  0.84183638  0.18415961  0.87251706    -0.26030
C919        C  0.81341075  0.18055384  0.90853722    -0.15270
C920        C  0.76858369  0.18765256  0.90152742     0.37060
N921        N  0.73866752  0.18306589  0.93760586    -0.89520
H922        H  0.71935568  0.20784939  0.85495001     0.18170
H923        H  0.87633293  0.17955283  0.87807004     0.18160
N924        N  0.85682531  0.20180514  0.79449037    -0.88550
H925        H  0.70679019  0.18818873  0.92670589     0.35540
H926        H  0.74499193  0.20752716  0.96127367     0.40640
H927        H  0.84805887  0.17934493  0.76958505     0.40260
H928        H  0.88829492  0.19353555  0.80457853     0.35150
C929        C  0.79557042  0.35876311  0.73151138    -0.26580
C930        C  0.79038267  0.32092598  0.70526188    -0.14660
C931        C  0.80070330  0.32201246  0.65961845     0.35970
C932        C  0.81180665  0.36170887  0.64040068    -0.26030
C933        C  0.81236405  0.40046883  0.66574236    -0.15270
C934        C  0.80616090  0.39849059  0.71233246     0.37060
N935        N  0.80804212  0.43658948  0.74067271    -0.89520
H936        H  0.78839434  0.35816886  0.76670461     0.18170
H937        H  0.81597301  0.36310421  0.60472714     0.18160
N938        N  0.79774547  0.28313837  0.63256452    -0.88550
H939        H  0.77669081  0.44301133  0.75230060     0.35540
H940        H  0.81783633  0.46369707  0.72316894     0.40640
H941        H  0.82099444  0.26118153  0.64425319     0.40260
H942        H  0.80581234  0.28942759  0.59963899     0.35150
C943        C  0.61916804  0.18710197  0.14854118    -0.26580
C944        C  0.64501638  0.18452721  0.11050065    -0.14660
C945        C  0.69043166  0.18753125  0.11422282     0.35970
C946        C  0.70903630  0.19643662  0.15592237    -0.26030
C947        C  0.68281390  0.20305413  0.19342206    -0.15270
C948        C  0.63753345  0.19653125  0.19016367     0.37060
N949        N  0.60924278  0.20027169  0.22789639    -0.89520
H950        H  0.58417349  0.18529380  0.14534197     0.18170
H951        H  0.74375935  0.20119903  0.15870091     0.18160
N952        N  0.71686052  0.18520161  0.07500462    -0.88550
H953        H  0.58946473  0.22762600  0.22355821     0.35540
H954        H  0.62645769  0.20507801  0.25752250     0.40640
H955        H  0.71379601  0.15395678  0.06118250     0.40260
H956        H  0.74961589  0.18909106  0.08326953     0.35150
C957        C  0.83670272  0.22111405  0.30135726    -0.26580
C958        C  0.79971063  0.19509815  0.30472693    -0.14660
C959        C  0.80453469  0.15035473  0.31248091     0.35970
C960        C  0.84633859  0.13197851  0.31355621    -0.26030
C961        C  0.88296315  0.15760461  0.30686840    -0.15270
C962        C  0.87831469  0.20290937  0.30205362     0.37060
N963        N  0.91475430  0.23113774  0.29651923    -0.89520
H964        H  0.83324107  0.25551768  0.29514480     0.18170
H965        H  0.85034138  0.09725771  0.31739306     0.18160
N966        N  0.76694010  0.12367343  0.31742929    -0.88550
H967        H  0.91298704  0.24345309  0.26443826     0.35540
H968        H  0.94429359  0.21453474  0.29906912     0.40640
H969        H  0.75089345  0.13436935  0.34619140     0.40260
H970        H  0.77611835  0.09138521  0.32249013     0.35150
C971        C  0.74993578  0.34943142  0.31310834    -0.26580
C972        C  0.71193257  0.32890042  0.29806647    -0.14660
C973        C  0.67280051  0.35368827  0.29778571     0.35970
C974        C  0.67351026  0.39789516  0.31031532    -0.26030
C975        C  0.71148251  0.41774214  0.32687007    -0.15270
C976        C  0.74941684  0.39157227  0.33104586     0.37060
N977        N  0.78674179  0.40654667  0.35573005    -0.89520
H978        H  0.78048893  0.33183555  0.31295333     0.18170
H979        H  0.64367688  0.41647671  0.30767973     0.18160
N980        N  0.63143672  0.33494478  0.28769885    -0.88550
H981        H  0.81156342  0.38318292  0.35574577     0.35540
H982        H  0.77729212  0.41118476  0.38881276     0.40640
H983        H  0.62816652  0.30619820  0.30518351     0.40260
H984        H  0.62878270  0.32873299  0.25364272     0.35150
C985        C  0.32173083  0.28722927  0.16185039    -0.26580
C986        C  0.34755934  0.29996071  0.19826388    -0.14660
C987        C  0.39186069  0.30904345  0.19224934     0.35970
C988        C  0.40966032  0.30356991  0.14982597    -0.26030
C989        C  0.38410090  0.28953185  0.11353850    -0.15270
C990        C  0.33945606  0.28220760  0.11937171     0.37060
N991        N  0.31241807  0.26972410  0.08222150    -0.89520
H992        H  0.28764326  0.28055070  0.16687500     0.18170
H993        H  0.44396911  0.30940456  0.14536864     0.18160
N994        N  0.41970208  0.32300281  0.22818860    -0.88550
H995        H  0.28039879  0.26532400  0.09237049     0.35540
H996        H  0.31191416  0.29547701  0.06013540     0.40640
H997        H  0.40282235  0.32604061  0.25806478     0.40260
H998        H  0.43065813  0.35406429  0.22089489     0.35150
C999        C  0.30039491  0.21332636  0.36679319    -0.26580
C1000       C  0.29269413  0.21413650  0.32086226    -0.14660
C1001       C  0.28052463  0.17558199  0.29768033     0.35970
C1002       C  0.27756107  0.13709407  0.32115193    -0.26030
C1003       C  0.28470535  0.13642313  0.36719025    -0.15270
C1004       C  0.29625699  0.17501186  0.39024609     0.37060
N1005       N  0.30193306  0.17675926  0.43753529    -0.89520
H1006       H  0.30901813  0.24296385  0.38466263     0.18170
H1007       H  0.26806444  0.10759990  0.30350383     0.18160
N1008       N  0.26953358  0.17429797  0.25109392    -0.88550
H1009       H  0.32803689  0.15677990  0.44618331     0.35540
H1010       H  0.27381898  0.16519937  0.45233812     0.40640
H1011       H  0.27011762  0.20497776  0.23719138     0.40260
H1012       H  0.23738504  0.16399674  0.24818625     0.35150
C1013       C  0.21439956  0.38052436  0.25113071    -0.26580
C1014       C  0.22911377  0.35960870  0.28962270    -0.14660
C1015       C  0.20455874  0.36460266  0.32910579     0.35970
C1016       C  0.16278612  0.38316604  0.32697848    -0.26030
C1017       C  0.14658182  0.39945582  0.28697000    -0.15270
C1018       C  0.17434507  0.40199469  0.25010577     0.37060
N1019       N  0.16079532  0.42471273  0.21101094    -0.89520
H1020       H  0.23251217  0.37814623  0.22054446     0.18170
H1021       H  0.14217885  0.38298541  0.35600204     0.18160
N1022       N  0.22154041  0.34987631  0.37079954    -0.88550
H1023       H  0.18492483  0.42331239  0.18674164     0.35540
H1024       H  0.15682838  0.45745789  0.22005903     0.40640
H1025       H  0.24906361  0.36825565  0.37832902     0.40260
H1026       H  0.19935003  0.35595858  0.39637391     0.35150
C1027       C  0.73044592  0.66434010  0.12791774    -0.26580
C1028       C  0.70152163  0.67778984  0.16190260    -0.14660
C1029       C  0.67275202  0.64576605  0.17796295     0.35970
C1030       C  0.67724837  0.60221775  0.16458531    -0.26030
C1031       C  0.70874675  0.58878181  0.13421777    -0.15270
C1032       C  0.73440738  0.62051377  0.11402647     0.37060
N1033       N  0.76402683  0.60830789  0.07910897    -0.89520
H1034       H  0.75026562  0.68797605  0.11168320     0.18170
H1035       H  0.65613157  0.57841207  0.17903397     0.18160
N1036       N  0.63859228  0.65607529  0.20806313    -0.88550
H1037       H  0.78062160  0.63537137  0.06786118     0.35540
H1038       H  0.74565345  0.59641468  0.05227135     0.40640
H1039       H  0.60917578  0.64785566  0.19268916     0.40260
H1040       H  0.64234803  0.63670985  0.23598528     0.35150
C1041       C  0.81073748  0.82879477  0.23663369    -0.26580
C1042       C  0.79283866  0.81018926  0.19778236    -0.14660
C1043       C  0.81529336  0.81525652  0.15697037     0.35970
C1044       C  0.85607009  0.83551850  0.15699825    -0.26030
C1045       C  0.87397364  0.85299692  0.19629066    -0.15270
C1046       C  0.84964601  0.85170683  0.23598481     0.37060
N1047       N  0.86501737  0.87326813  0.27589358    -0.89520
H1048       H  0.79457579  0.82520719  0.26815825     0.18170
H1049       H  0.87395986  0.83733926  0.12621924     0.18160
N1050       N  0.79739277  0.80170709  0.11483016    -0.88550
H1051       H  0.84352494  0.86910262  0.30217690     0.35540
H1052       H  0.86573204  0.90655610  0.26986636     0.40640
H1053       H  0.76385763  0.79778718  0.11651672     0.40260
H1054       H  0.81163848  0.77189837  0.10587491     0.35150
C1055       C  0.65063856  0.83249138  0.29458215    -0.26580
C1056       C  0.65027217  0.79023383  0.27467874    -0.14660
C1057       C  0.62809665  0.75757259  0.29823408     0.35970
C1058       C  0.60910401  0.76709302  0.33880851    -0.26030
C1059       C  0.61689294  0.80610889  0.36174633    -0.15270
C1060       C  0.63607181  0.84022578  0.33869276     0.37060
N1061       N  0.64227281  0.88171579  0.36034526    -0.89520
H1062       H  0.66484749  0.85911858  0.27709699     0.18170
H1063       H  0.59212707  0.74118884  0.35511637     0.18160
N1064       N  0.62705310  0.71298328  0.28505784    -0.88550
H1065       H  0.65682228  0.90328434  0.33872608     0.35540
H1066       H  0.66408617  0.87732615  0.38663812     0.40640
H1067       H  0.65850514  0.70175805  0.27852923     0.40260
H1068       H  0.60532710  0.70947845  0.25863422     0.35150
C1069       C  0.30434771  0.83745820  0.09016995    -0.26580
C1070       C  0.29065532  0.87462719  0.11417469    -0.14660
C1071       C  0.28096336  0.87162322  0.15975105     0.35970
C1072       C  0.28274637  0.83103427  0.17969982    -0.26030
C1073       C  0.29458235  0.79357453  0.15526316    -0.15270
C1074       C  0.30653519  0.79686521  0.11019702     0.37060
N1075       N  0.32147253  0.76016821  0.08404575    -0.89520
H1076       H  0.31231712  0.83976986  0.05527781     0.18170
H1077       H  0.27390473  0.82835606  0.21434411     0.18160
N1078       N  0.26898631  0.90974216  0.18541674    -0.88550
H1079       H  0.29836019  0.75412522  0.05917474     0.35540
H1080       H  0.32406156  0.73216384  0.10282707     0.40640
H1081       H  0.29574077  0.93036800  0.18630564     0.40260
H1082       H  0.26251754  0.90181076  0.21831957     0.35150
C1083       C  0.17036436  0.68353147  0.17803462    -0.26580
C1084       C  0.20975153  0.66127666  0.18485141    -0.14660
C1085       C  0.20959952  0.61569749  0.18925402     0.35970
C1086       C  0.16979210  0.59392052  0.19061303    -0.26030
C1087       C  0.13056797  0.61690679  0.18717625    -0.15270
C1088       C  0.13070686  0.66178337  0.17924074     0.37060
N1089       N  0.09053710  0.68519325  0.17339837    -0.89520
H1090       H  0.17026055  0.71846537  0.17456154     0.18170
H1091       H  0.16922817  0.55931789  0.19639715     0.18160
N1092       N  0.24974712  0.59201179  0.19350816    -0.88550
H1093       H  0.09647545  0.71763749  0.16611613     0.35540
H1094       H  0.07409657  0.68557844  0.20366373     0.40640
H1095       H  0.26685288  0.59540689  0.16391209     0.40260
H1096       H  0.24390850  0.55884776  0.19675779     0.35150
C1097       C  0.37663007  0.70615974  0.28533350    -0.26580
C1098       C  0.33115802  0.70595391  0.28540065    -0.14660
C1099       C  0.30863414  0.70805008  0.32607011     0.35970
C1100       C  0.33230163  0.71114047  0.36588202    -0.26030
C1101       C  0.37771985  0.71311202  0.36565342    -0.15270
C1102       C  0.40031105  0.71014570  0.32488133     0.37060
N1103       N  0.44670215  0.71371358  0.32184227    -0.89520
H1104       H  0.39384683  0.70513169  0.25401512     0.18170
H1105       H  0.31526772  0.71352806  0.39726457     0.18160
N1106       N  0.26197713  0.70894508  0.32671268    -0.88550
H1107       H  0.45885849  0.68373632  0.31044389     0.35540
H1108       H  0.46131398  0.72042132  0.35250458     0.40640
H1109       H  0.25167607  0.73762827  0.31177998     0.40260
H1110       H  0.25062109  0.71038039  0.35938561     0.35150
C1111       C  0.83327486  0.78447082  0.66924619    -0.26580
C1112       C  0.78817882  0.77966800  0.67310696    -0.14660
C1113       C  0.76133687  0.78867346  0.63596650     0.35970
C1114       C  0.78025584  0.80137818  0.59594641    -0.26030
C1115       C  0.82539195  0.80402369  0.59155379    -0.15270
C1116       C  0.85217255  0.79618451  0.62878460     0.37060
N1117       N  0.89857189  0.79681567  0.62432307    -0.89520
H1118       H  0.85392446  0.77779574  0.69760048     0.18170
H1119       H  0.75994839  0.80568997  0.56681267     0.18160
N1120       N  0.71524435  0.78231214  0.63804164    -0.88550
H1121       H  0.91367814  0.78853446  0.65420661     0.35540
H1122       H  0.90743422  0.82876585  0.61804118     0.40640
H1123       H  0.71006849  0.74929071  0.64297876     0.40260
H1124       H  0.70035970  0.78982631  0.60781699     0.35150
C1125       C  0.75167451  0.64668157  0.82101321    -0.26580
C1126       C  0.78300089  0.66970717  0.79734035    -0.14660
C1127       C  0.82498341  0.65045450  0.79315902     0.35970
C1128       C  0.83297925  0.60796746  0.80876648    -0.26030
C1129       C  0.80066482  0.58525173  0.83100113    -0.15270
C1130       C  0.76085843  0.60667269  0.84006849     0.37060
N1131       N  0.72908486  0.58679916  0.86780265    -0.89520
H1132       H  0.71887724  0.65888576  0.82414772     0.18170
H1133       H  0.86415394  0.59249820  0.80274033     0.18160
N1134       N  0.85979727  0.67371176  0.77369151    -0.88550
H1135       H  0.70146326  0.60649635  0.87130195     0.35540
H1136       H  0.74284744  0.58424317  0.89946740     0.40640
H1137       H  0.88482219  0.67627663  0.79717254     0.40260
H1138       H  0.87140940  0.65535263  0.74659786     0.35150
C1139       C  0.66223188  0.82675372  0.79899181    -0.26580
C1140       C  0.66954810  0.78393965  0.78395369    -0.14660
C1141       C  0.63345022  0.75653235  0.77538394     0.35970
C1142       C  0.59138566  0.77284778  0.78214502    -0.26030
C1143       C  0.58401321  0.81612574  0.79543325    -0.15270
C1144       C  0.62002607  0.84322755  0.80440563     0.37060
N1145       N  0.61481438  0.88826735  0.81620721    -0.89520
H1146       H  0.68955701  0.84809268  0.80473714     0.18170
H1147       H  0.56396883  0.75226498  0.77406078     0.18160
N1148       N  0.63772588  0.71293294  0.75759847    -0.88550
H1149       H  0.59834823  0.89082427  0.84637269     0.35540
H1150       H  0.59626482  0.90331733  0.79163671     0.40640
H1151       H  0.66987069  0.70409755  0.75156914     0.40260
H1152       H  0.62217065  0.71192187  0.72662155     0.35150
loop_ 
_geom_bond_atom_site_label_1 
_geom_bond_atom_site_label_2 
_geom_bond_distance 
_geom_bond_site_symmetry_2 
_ccdc_geom_bond_type 
C1            C2   1.398       .  A
C1            C6   1.395       .  A
C1         C1140   1.481       .  S
C2            C3   1.416       .  A
C2            H7   1.081       .  S
C3            C4   1.418       .  A
C3         C1126   1.516       .  S
C4            C5   1.415       .  A
C4            H8   1.080       .  S
C5            C6   1.402       .  A
C5         C1112   1.493       .  S
C6            H9   1.083       .  S
C10          C11   1.400       .  A
C10          C15   1.398       .  A
C10        C1098   1.473       .  S
C11          C12   1.406       .  A
C11          H16   1.083       .  S
C12          C13   1.405       .  A
C12        C1084   1.482       .  S
C13          C14   1.401       .  A
C13          H17   1.084       .  S
C14          C15   1.396       .  A
C14        C1073   1.471       .  S
C15          H18   1.085       .  S
C19          C20   1.416       .  A
C19          C24   1.416       .  A
C19        C1028   1.522       .  S
C20          C21   1.414       .  A
C20          H25   1.072       .  S
C21          C22   1.407       .  A
C21        C1056   1.519       .  S
C22          C23   1.406       .  A
C22          H26   1.079       .  S
C23          C24   1.404       .  A
C23        C1042   1.499       .  S
C24          H27   1.080       .  S
C28          C29   1.397       .  A
C28          C33   1.394       .  A
C28         C986   1.465       .  S
C29          C30   1.409       .  A
C29          H34   1.082       .  S
C30          C31   1.408       .  A
C30        C1014   1.494       .  S
C31          C32   1.399       .  A
C31          H35   1.082       .  S
C32          C33   1.395       .  A
C32        C1000   1.469       .  S
C33          H36   1.085       .  S
C37          C38   1.412       .  A
C37          C42   1.407       .  A
C37         C972   1.500       .  S
C38          C39   1.400       .  A
C38          H43   1.083       .  S
C39          C40   1.396       .  A
C39         C958   1.477       .  S
C40          C41   1.394       .  A
C40          H44   1.084       .  S
C41          C42   1.405       .  A
C41         C947   1.469       .  S
C42          H45   1.077       .  S
C46          C47   1.413       .  A
C46          C51   1.409       .  A
C46         C916   1.500       .  S
C47          C48   1.409       .  A
C47          H52   1.083       .  S
C48          C49   1.407       .  A
C48         C930   1.493       .  S
C49          C50   1.404       .  A
C49          H53   1.084       .  S
C50          C51   1.408       .  A
C50         C902   1.492       .  S
C51          H54   1.083       .  S
C55          C56   1.402       .  A
C55          C60   1.407       .  A
C55         C860   1.481       .  S
C56          C57   1.401       .  A
C56          H61   1.084       .  S
C57          C58   1.399       .  A
C57         C891   1.481       .  S
C58          C59   1.411       .  A
C58          H62   1.082       .  S
C59          C60   1.411       .  A
C59         C874   1.506       .  S
C60          H63   1.081       .  S
Zr64         O65   2.438       .  S
Zr64         O66   2.496       .  S
Zr64         O67   2.495   1_545  S
Zr64         O70   2.526       .  S
Zr64         O72   2.384   1_655  S
Zr64         O73   2.390   1_655  S
Zr64         O74   2.439   1_645  S
Zr64         O75   2.426       .  S
O65         H121   0.990       .  S
O65         H129   0.990   1_545  S
O66          C86   1.297       .  A
O67          C88   1.296       .  A
O68         Zr78   2.413   1_656  S
O68          C87   1.273   1_556  A
O69         Zr77   2.445       .  S
O69          C88   1.288   1_455  A
O70          C87   1.300       .  A
O71         Zr79   2.382       .  S
O71          C86   1.272   1_455  A
O72         Zr77   2.385   1_545  S
O72         Zr79   2.368       .  S
O73         Zr78   2.415       .  S
O73         Zr79   2.403       .  S
O73         H108   0.966   1_455  S
O74         Zr77   2.402       .  S
O74         Zr94   2.417   1_564  S
O74         H111   0.966       .  S
O75         Zr78   2.377   1_655  S
O75         Zr94   2.410   1_654  S
Zr76        O101   2.440       .  S
Zr76         O95   2.435   1_554  S
Zr76        O103   2.498       .  S
Zr76         O91   2.419       .  S
Zr76         O82   2.358       .  S
Zr76         O83   2.417       .  S
Zr76         O84   2.386       .  S
Zr76         O85   2.384   1_554  S
Zr77         O96   2.438       .  S
Zr77         O89   2.435       .  S
Zr77         O90   2.430       .  S
Zr77         O83   2.411   1_565  S
Zr77         O84   2.383   1_565  S
Zr78         O80   2.438   1_554  S
Zr78        O102   2.418   1_455  S
Zr78        O104   2.422       .  S
Zr78         O82   2.366       .  S
Zr78         O85   2.384   1_554  S
Zr79        O105   2.436       .  S
Zr79        O106   2.435       .  S
Zr79         O81   2.439       .  S
Zr79         O82   2.354       .  S
Zr79         O83   2.392       .  S
O80         H117   0.990       .  S
O81         H112   0.990       .  S
O81         H126   0.990       .  S
O83         H109   0.966       .  S
O84         Zr94   2.360   1_554  S
O85         Zr94   2.391       .  S
O85         H110   0.965       .  S
C86         C141   1.479       .  S
C87         C522   1.505       .  S
C88         C336   1.506       .  S
O89         H125   0.990   1_565  S
O90          C92   1.285       .  A
O91          C92   1.283   1_545  A
C92         C150   1.479       .  S
O93         Zr94   2.442   1_665  S
O93         H122   0.990       .  S
Zr94         O97   2.437   1_545  S
Zr94         O98   2.444       .  S
Zr94         O99   2.459   1_545  S
O95         C100   1.285       .  A
O96         H113   0.990       .  S
O96         H128   0.990       .  S
O97         H114   0.990       .  S
O98         H118   0.990   1_545  S
O98         H127   0.989       .  S
O99         C100   1.288   1_565  A
C100        C615   1.499   1_545  S
O101        H120   0.990       .  S
O101        H124   0.990   1_554  S
O102        H116   0.990   1_554  S
O102        H123   0.986       .  S
O103        C107   1.296       .  A
O104        C107   1.284       .  A
O105        H115   0.990       .  S
O106        H119   0.990       .  S
C107        C132   1.482       .  S
C130        C131   1.402       .  A
C130        C135   1.409       .  A
C130        C849   1.476       .  S
C131        C132   1.395   1_556  A
C131        H136   1.085       .  S
C132        C133   1.413       .  A
C133        C134   1.411       .  A
C133        H137   1.083       .  S
C134        C135   1.407   1_554  A
C134        C479   1.483       .  S
C135        H138   1.084       .  S
C139        C140   1.400       .  A
C139        C144   1.398       .  A
C139        C961   1.465       .  S
C140        C141   1.396       .  A
C140        H145   1.084       .  S
C141        C142   1.416   1_655  A
C142        C143   1.409   1_455  A
C142        H146   1.083       .  S
C143        C144   1.401       .  A
C143        C293   1.475   1_655  S
C144        H147   1.084       .  S
C148        C149   1.405       .  A
C148        C153   1.405       .  A
C148       C1070   1.477       .  S
C149        C150   1.400       .  A
C149        H154   1.084       .  S
C150        C151   1.402       .  A
C151        C152   1.400       .  A
C151        H155   1.084   1_565  S
C152        C153   1.400       .  A
C152        C553   1.468       .  S
C153        H156   1.084       .  S
Zr157       O158   2.443       .  S
Zr157       O159   2.492       .  S
Zr157       O160   2.435       .  S
Zr157       O163   2.488       .  S
Zr157       O165   2.391       .  S
Zr157       O166   2.389       .  S
Zr157       O167   2.436       .  S
Zr157       O168   2.376       .  S
O158        H214   0.989       .  S
O158        H222   0.990       .  S
O159        C179   1.296       .  A
O160        C181   1.284       .  A
O161       Zr171   2.372       .  S
O161        C180   1.275       .  A
O162       Zr170   2.458       .  S
O162        C181   1.291       .  A
O163        C180   1.294       .  A
O164       Zr172   2.413       .  S
O164        C179   1.278       .  A
O165       Zr170   2.393       .  S
O165       Zr172   2.389       .  S
O166       Zr171   2.392       .  S
O166       Zr172   2.389       .  S
O166        H201   0.966       .  S
O167       Zr170   2.406       .  S
O167       Zr187   2.390       .  S
O167        H204   0.963       .  S
O168       Zr171   2.365       .  S
O168       Zr187   2.377       .  S
Zr169       O194   2.438       .  S
Zr169       O188   2.443       .  S
Zr169       O196   2.474       .  S
Zr169       O184   2.400       .  S
Zr169       O175   2.400       .  S
Zr169       O176   2.428   1_455  S
Zr169       O177   2.379   1_455  S
Zr169       O178   2.380   1_455  S
Zr170       O189   2.439       .  S
Zr170       O182   2.434       .  S
Zr170       O183   2.460       .  S
Zr170       O176   2.406       .  S
Zr170       O177   2.373       .  S
Zr171       O173   2.437   1_655  S
Zr171       O195   2.437       .  S
Zr171       O197   2.404   1_655  S
Zr171       O175   2.372   1_655  S
Zr171       O178   2.401       .  S
Zr172       O198   2.435       .  S
Zr172       O199   2.435   1_655  S
Zr172       O174   2.437       .  S
Zr172       O175   2.399   1_655  S
Zr172       O176   2.394       .  S
O173        H210   0.990       .  S
O174        H205   0.990       .  S
O174        H219   0.990       .  S
O176        H202   0.966       .  S
O177       Zr187   2.345       .  S
O178       Zr187   2.383       .  S
O178        H203   0.965   1_655  S
C179        C708   1.504       .  S
C180        C243   1.460       .  S
C181        C227   1.486       .  S
O182        H218   0.990       .  S
O183        C185   1.292   1_655  A
O184        C185   1.281       .  A
C185        C513   1.476       .  S
O186       Zr187   2.441       .  S
O186        H215   0.990       .  S
Zr187       O190   2.440       .  S
Zr187       O191   2.441       .  S
Zr187       O192   2.438       .  S
O188        C193   1.286       .  A
O189        H206   0.990       .  S
O189        H221   0.990       .  S
O190        H207   0.990       .  S
O191        H211   0.990       .  S
O191        H220   0.990       .  S
O192        C193   1.283   1_655  A
C193        C234   1.471       .  S
O194        H213   0.990       .  S
O194        H217   0.990       .  S
O195        H209   0.990   1_655  S
O195        H216   0.990       .  S
O196        C200   1.287       .  A
O197        C200   1.271       .  A
O198        H208   0.990       .  S
O199        H212   0.990       .  S
C200        C320   1.476       .  S
C223        C224   1.411       .  A
C223        C228   1.404       .  A
C223        C975   1.503       .  S
C224        C225   1.411       .  A
C224        H229   1.082       .  S
C225        C226   1.404       .  A
C225        C665   1.473       .  S
C226        C227   1.406       .  A
C226        H230   1.083       .  S
C227        C228   1.396       .  A
C228        H231   1.081       .  S
C232        C233   1.398       .  A
C232        C237   1.401       .  A
C232       C1087   1.469       .  S
C233        C234   1.394       .  A
C233        H238   1.085       .  S
C234        C235   1.409       .  A
C235        C236   1.411       .  A
C235        H239   1.084   1_455  S
C236        C237   1.406       .  A
C236        C464   1.480       .  S
C237        H240   1.084       .  S
C241        C242   1.397       .  A
C241        C246   1.415       .  A
C241       C1115   1.480       .  S
C242        C243   1.385       .  A
C242        H247   1.086       .  S
C243        C244   1.409       .  A
C244        C245   1.404       .  A
C244        H248   1.084       .  S
C245        C246   1.420       .  A
C245        C272   1.502       .  S
C246        H249   1.083       .  S
Zr250       O251   2.439       .  S
Zr250       O252   2.484   1_455  S
Zr250       O253   2.449       .  S
Zr250       O256   2.497       .  S
Zr250       O258   2.396       .  S
Zr250       O259   2.390   1_455  S
Zr250       O260   2.431       .  S
Zr250       O261   2.393       .  S
O251        H307   0.990   1_455  S
O251        H315   0.990       .  S
O252        C272   1.295       .  A
O253        C274   1.287       .  A
O254       Zr264   2.386       .  S
O254        C273   1.270       .  A
O255       Zr263   2.459       .  S
O255        C274   1.291       .  A
O256        C273   1.290   1_455  A
O257       Zr265   2.415       .  S
O257        C272   1.279       .  A
O258       Zr263   2.395       .  S
O258       Zr265   2.381   1_455  S
O259       Zr264   2.395       .  S
O259       Zr265   2.387       .  S
O259        H294   0.966       .  S
O260       Zr263   2.408       .  S
O260       Zr280   2.395       .  S
O260        H297   0.964       .  S
O261       Zr264   2.381   1_455  S
O261       Zr280   2.383       .  S
Zr262       O287   2.441       .  S
Zr262       O281   2.450       .  S
Zr262       O289   2.477       .  S
Zr262       O277   2.419       .  S
Zr262       O268   2.405       .  S
Zr262       O269   2.428   1_545  S
Zr262       O270   2.379   1_545  S
Zr262       O271   2.393   1_545  S
Zr263       O282   2.438       .  S
Zr263       O275   2.434       .  S
Zr263       O276   2.472       .  S
Zr263       O269   2.402       .  S
Zr263       O270   2.369       .  S
Zr264       O266   2.435   1_655  S
Zr264       O288   2.441       .  S
Zr264       O290   2.389   1_565  S
Zr264       O268   2.381   1_665  S
Zr264       O271   2.400   1_655  S
Zr265       O291   2.436       .  S
Zr265       O292   2.435   1_565  S
Zr265       O267   2.437       .  S
Zr265       O268   2.388   1_665  S
Zr265       O269   2.399   1_655  S
O266        H303   0.990   1_465  S
O267        H298   0.990       .  S
O267        H312   0.990       .  S
O269        H295   0.966       .  S
O270       Zr280   2.354       .  S
O271       Zr280   2.385       .  S
O271        H296   0.965   1_565  S
C273        C338   1.475       .  S
C274        C318   1.496       .  S
O275        H311   0.990       .  S
O276        C278   1.295   1_565  A
O277        C278   1.283       .  A
C278        C792   1.487       .  S
O279       Zr280   2.441       .  S
O279        H308   0.990       .  S
Zr280       O283   2.439       .  S
Zr280       O284   2.443       .  S
Zr280       O285   2.426       .  S
O281        C286   1.288       .  A
O282        H299   0.990       .  S
O282        H314   0.990       .  S
O283        H300   0.990       .  S
O284        H304   0.990       .  S
O284        H313   0.990   1_565  S
O285        C286   1.282   1_565  A
C286        C327   1.470       .  S
O287        H306   0.990       .  S
O287        H310   0.990       .  S
O288        H302   0.990       .  S
O288        H309   0.990       .  S
O289        C293   1.284       .  A
O290        C293   1.266   1_655  A
O291        H301   0.990       .  S
O292        H305   0.990       .  S
C316        C317   1.401       .  A
C316        C321   1.402       .  A
C316        C863   1.479       .  S
C317        C318   1.406       .  A
C317        H322   1.084       .  S
C318        C319   1.415       .  A
C319        C320   1.411       .  A
C319        H323   1.084       .  S
C320        C321   1.403       .  A
C321        H324   1.084       .  S
C325        C326   1.400       .  A
C325        C330   1.401       .  A
C325       C1003   1.471       .  S
C326        C327   1.394       .  A
C326        H331   1.085       .  S
C327        C328   1.409       .  A
C328        C329   1.409       .  A
C328        H332   1.084   1_545  S
C329        C330   1.402       .  A
C329        C739   1.478       .  S
C330        H333   1.083       .  S
C334        C335   1.418       .  A
C334        C339   1.402       .  A
C334       C1045   1.489       .  S
C335        C336   1.416       .  A
C335        H340   1.083       .  S
C336        C337   1.417       .  A
C337        C338   1.413       .  A
C337        H341   1.082   1_655  S
C338        C339   1.384       .  A
C339        H342   1.085       .  S
Zr343       O344   2.433       .  S
Zr343       O345   2.446       .  S
Zr343       O346   2.422       .  S
Zr343       O349   2.480       .  S
Zr343       O351   2.382       .  S
Zr343       O352   2.389       .  S
Zr343       O353   2.414       .  S
Zr343       O354   2.355       .  S
O344        H400   0.989       .  S
O344        H408   0.991       .  S
O345        C365   1.289       .  A
O346        C367   1.281       .  A
O347       Zr357   2.390       .  S
O347        C366   1.279       .  A
O348       Zr356   2.426       .  S
O348        C367   1.283       .  A
O349        C366   1.291       .  A
O350       Zr358   2.398       .  S
O350        C365   1.275       .  A
O351       Zr356   2.377       .  S
O351       Zr358   2.383       .  S
O352       Zr357   2.383       .  S
O352       Zr358   2.397       .  S
O352        H387   0.966       .  S
O353       Zr356   2.397       .  S
O353       Zr373   2.393       .  S
O353        H390   0.965       .  S
O354       Zr357   2.358       .  S
O354       Zr373   2.356       .  S
Zr355       O380   2.442       .  S
Zr355       O374   2.447       .  S
Zr355       O382   2.466       .  S
Zr355       O370   2.421       .  S
Zr355       O361   2.403   1_554  S
Zr355       O362   2.423   1_554  S
Zr355       O363   2.377   1_554  S
Zr355       O364   2.395   1_554  S
Zr356       O375   2.436       .  S
Zr356       O368   2.435       .  S
Zr356       O369   2.408       .  S
Zr356       O362   2.402       .  S
Zr356       O363   2.372       .  S
Zr357       O359   2.432       .  S
Zr357       O381   2.436       .  S
Zr357       O383   2.397   1_556  S
Zr357       O361   2.375       .  S
Zr357       O364   2.408       .  S
Zr358       O384   2.436       .  S
Zr358       O385   2.435   1_556  S
Zr358       O360   2.437       .  S
Zr358       O361   2.381       .  S
Zr358       O362   2.396       .  S
O359        H396   0.990   1_556  S
O360        H391   0.990       .  S
O360        H405   0.990       .  S
O362        H388   0.966       .  S
O363       Zr373   2.357       .  S
O364       Zr373   2.393       .  S
O364        H389   0.965   1_556  S
C365        C699   1.480       .  S
C366        C429   1.465       .  S
C367        C411   1.478       .  S
O368        H404   0.990       .  S
O369        C371   1.282       .  A
O370        C371   1.283   1_554  A
C371        C606   1.458   1_556  S
O372       Zr373   2.441       .  S
O372        H401   0.990       .  S
Zr373       O376   2.439       .  S
Zr373       O377   2.441       .  S
Zr373       O378   2.396       .  S
O374        C379   1.288   1_554  A
O375        H392   0.990       .  S
O375        H407   0.990       .  S
O376        H393   0.990       .  S
O377        H397   0.990       .  S
O377        H406   0.990       .  S
O378        C379   1.276       .  A
C379        C420   1.458   1_556  S
O380        H399   0.990       .  S
O380        H403   0.990       .  S
O381        H395   0.990   1_556  S
O381        H402   0.989       .  S
O382        C386   1.281       .  A
O383        C386   1.266       .  A
O384        H394   0.990       .  S
O385        H398   0.990       .  S
C386        C504   1.471       .  S
C409        C410   1.405       .  A
C409        C414   1.414       .  A
C409        C832   1.497       .  S
C410        C411   1.393       .  A
C410        H415   1.082       .  S
C411        C412   1.397       .  A
C412        C413   1.403       .  A
C412        H416   1.083       .  S
C413        C414   1.415       .  A
C413        C644   1.485       .  S
C414        H417   1.083       .  S
C418        C419   1.394       .  A
C418        C423   1.403       .  A
C418        C944   1.462       .  S
C419        C420   1.385       .  A
C419        H424   1.085       .  S
C420        C421   1.402   1_554  A
C421        C422   1.408   1_556  A
C421        H425   1.084       .  S
C422        C423   1.411       .  A
C422        C565   1.483   1_554  S
C423        H426   1.083       .  S
C427        C428   1.403       .  A
C427        C432   1.420       .  A
C427       C1129   1.497       .  S
C428        C429   1.385       .  A
C428        H433   1.085       .  S
C429        C430   1.404       .  A
C430        C431   1.402       .  A
C430        H434   1.084       .  S
C431        C432   1.426       .  A
C431        C458   1.502       .  S
C432        H435   1.083       .  S
Zr436       O437   2.440   1_554  S
Zr436       O438   2.494   1_554  S
Zr436       O439   2.442       .  S
Zr436       O442   2.510       .  S
Zr436       O444   2.391       .  S
Zr436       O445   2.389   1_554  S
Zr436       O446   2.436       .  S
Zr436       O447   2.378       .  S
O437        H493   0.990       .  S
O437        H501   0.991   1_556  S
O438        C458   1.297       .  A
O439        C460   1.285       .  A
O440       Zr450   2.406       .  S
O440        C459   1.280       .  A
O441       Zr449   2.437       .  S
O441        C460   1.286       .  A
O442        C459   1.300       .  A
O443       Zr451   2.408       .  S
O443        C458   1.277       .  A
O444       Zr449   2.392       .  S
O444       Zr451   2.384   1_554  S
O445       Zr450   2.400   1_556  S
O445       Zr451   2.397       .  S
O445        H480   0.966       .  S
O446       Zr449   2.405       .  S
O446       Zr466   2.390       .  S
O446        H483   0.964       .  S
O447       Zr450   2.359       .  S
O447       Zr466   2.369       .  S
Zr448       O473   2.440       .  S
Zr448       O467   2.438       .  S
Zr448       O475   2.502       .  S
Zr448       O463   2.435       .  S
Zr448       O454   2.391       .  S
Zr448       O455   2.420   1_455  S
Zr448       O456   2.383   1_455  S
Zr448       O457   2.367   1_455  S
Zr449       O468   2.440       .  S
Zr449       O461   2.434       .  S
Zr449       O462   2.446       .  S
Zr449       O455   2.404       .  S
Zr449       O456   2.369       .  S
Zr450       O452   2.425   1_655  S
Zr450       O474   2.437   1_554  S
Zr450       O476   2.393   1_654  S
Zr450       O454   2.380   1_655  S
Zr450       O457   2.387       .  S
Zr451       O477   2.436       .  S
Zr451       O478   2.435   1_655  S
Zr451       O453   2.438       .  S
Zr451       O454   2.389   1_656  S
Zr451       O455   2.398   1_556  S
O452        H489   0.990   1_455  S
O453        H484   0.990       .  S
O453        H498   0.990       .  S
O455        H481   0.966       .  S
O456       Zr466   2.356       .  S
O457       Zr466   2.383       .  S
O457        H482   0.964   1_655  S
C459        C524   1.482       .  S
C460        C506   1.483       .  S
O461        H497   0.990       .  S
O462        C464   1.287   1_655  A
O463        C464   1.287       .  A
O465       Zr466   2.441       .  S
O465        H494   0.990       .  S
Zr466       O469   2.439       .  S
Zr466       O470   2.443       .  S
Zr466       O471   2.406       .  S
O467        C472   1.287       .  A
O468        H485   0.990       .  S
O468        H500   0.990       .  S
O469        H486   0.990       .  S
O470        H490   0.990       .  S
O470        H499   0.990       .  S
O471        C472   1.278   1_655  A
C472        C515   1.463       .  S
O473        H492   0.990       .  S
O473        H496   0.990       .  S
O474        H488   0.990       .  S
O474        H495   0.990       .  S
O475        C479   1.296       .  A
O476        C479   1.276   1_556  A
O477        H487   0.990       .  S
O478        H491   0.990       .  S
C502        C503   1.402       .  A
C502        C507   1.398       .  A
C502       C1031   1.488       .  S
C503        C504   1.405       .  A
C503        H508   1.084       .  S
C504        C505   1.405       .  A
C505        C506   1.411       .  A
C505        H509   1.084       .  S
C506        C507   1.404       .  A
C507        H510   1.083       .  S
C511        C512   1.401       .  A
C511        C516   1.399       .  A
C511       C1017   1.479       .  S
C512        C513   1.410       .  A
C512        H517   1.084       .  S
C513        C514   1.403       .  A
C514        C515   1.403       .  A
C514        H518   1.084   1_455  S
C515        C516   1.391       .  A
C516        H519   1.084       .  S
C520        C521   1.419       .  A
C520        C525   1.398       .  A
C520        C919   1.488       .  S
C521        C522   1.422   1_556  A
C521        H526   1.083       .  S
C522        C523   1.414       .  A
C523        C524   1.417       .  A
C523        H527   1.083       .  S
C524        C525   1.388   1_554  A
C525        H528   1.086       .  S
Zr529       O530   2.438       .  S
Zr529       O531   2.467       .  S
Zr529       O532   2.433       .  S
Zr529       O535   2.464       .  S
Zr529       O537   2.374   1_565  S
Zr529       O538   2.389   1_565  S
Zr529       O539   2.424   1_565  S
Zr529       O540   2.411       .  S
O530        H586   0.990       .  S
O530        H594   0.990       .  S
O531        C551   1.292       .  A
O532        C553   1.284   1_556  A
O533       Zr543   2.423   1_565  S
O533        C552   1.276       .  A
O534       Zr542   2.416   1_554  S
O534        C553   1.283   1_545  A
O535        C552   1.287       .  A
O536       Zr544   2.409       .  S
O536        C551   1.277   1_545  A
O537       Zr542   2.376       .  S
O537       Zr544   2.356       .  S
O538       Zr543   2.416       .  S
O538       Zr544   2.405       .  S
O538        H573   0.966   1_545  S
O539       Zr542   2.401       .  S
O539       Zr559   2.406       .  S
O539        H576   0.966   1_556  S
O540       Zr543   2.373   1_565  S
O540       Zr559   2.393   1_565  S
Zr541       O566   2.440       .  S
Zr541       O560   2.436       .  S
Zr541       O568   2.482       .  S
Zr541       O556   2.419       .  S
Zr541       O547   2.362       .  S
Zr541       O548   2.413       .  S
Zr541       O549   2.379       .  S
Zr541       O550   2.386       .  S
Zr542       O561   2.437   1_556  S
Zr542       O554   2.434       .  S
Zr542       O555   2.417   1_556  S
Zr542       O548   2.406       .  S
Zr542       O549   2.375       .  S
Zr543       O545   2.439       .  S
Zr543       O567   2.428   1_545  S
Zr543       O569   2.432       .  S
Zr543       O547   2.365       .  S
Zr543       O550   2.384       .  S
Zr544       O570   2.436       .  S
Zr544       O571   2.436       .  S
Zr544       O546   2.438       .  S
Zr544       O547   2.359       .  S
Zr544       O548   2.402       .  S
O545        H582   0.990       .  S
O546        H577   0.990       .  S
O546        H591   0.990       .  S
O548        H574   0.965       .  S
O549       Zr559   2.370       .  S
O550       Zr559   2.392       .  S
O550        H575   0.964       .  S
C551        C617   1.476       .  S
C552        C801   1.478       .  S
O554        H590   0.990       .  S
O555        C557   1.281   1_554  A
O556        C557   1.283       .  A
C557        C608   1.476   1_556  S
O558       Zr559   2.441   1_565  S
O558        H587   0.990   1_556  S
Zr559       O562   2.437   1_556  S
Zr559       O563   2.444       .  S
Zr559       O564   2.423       .  S
O560        C565   1.285       .  A
O561        H578   0.990       .  S
O561        H593   0.990       .  S
O562        H579   0.990       .  S
O563        H583   0.990       .  S
O563        H592   0.989       .  S
O564        C565   1.282       .  A
O566        H585   0.991       .  S
O566        H589   0.990       .  S
O567        H581   0.990       .  S
O567        H588   0.986       .  S
O568        C572   1.293       .  A
O569        C572   1.286       .  A
O570        H580   0.990       .  S
O571        H584   0.990       .  S
C572        C597   1.476       .  S
C595        C596   1.401       .  A
C595        C600   1.417       .  A
C595        C905   1.485       .  S
C596        C597   1.391       .  A
C596        H601   1.085       .  S
C597        C598   1.407       .  A
C598        C599   1.407       .  A
C598        H602   1.083       .  S
C599        C600   1.417       .  A
C599        C738   1.487       .  S
C600        H603   1.083       .  S
C604        C605   1.402       .  A
C604        C609   1.408       .  A
C604        C989   1.474       .  S
C605        C606   1.395       .  A
C605        H610   1.084       .  S
C606        C607   1.394   1_554  A
C607        C608   1.399   1_556  A
C607        H611   1.084       .  S
C608        C609   1.404       .  A
C609        H612   1.083       .  S
C613        C614   1.412       .  A
C613        C618   1.400       .  A
C613        C877   1.488       .  S
C614        C615   1.418       .  A
C614        H619   1.083       .  S
C615        C616   1.418       .  A
C616        C617   1.406       .  A
C616        H620   1.083   1_565  S
C617        C618   1.385       .  A
C618        H621   1.085       .  S
Zr622       O623   2.445       .  S
Zr622       O624   2.425       .  S
Zr622       O625   2.422       .  S
Zr622       O628   2.446       .  S
Zr622       O630   2.381       .  S
Zr622       O631   2.388       .  S
Zr622       O632   2.399       .  S
Zr622       O633   2.381       .  S
O623        H679   0.985       .  S
O623        H687   0.991       .  S
O624        C644   1.287       .  A
O625        C646   1.282       .  A
O626       Zr636   2.395       .  S
O626        C645   1.271       .  A
O627       Zr635   2.404       .  S
O627        C646   1.278       .  A
O628        C645   1.281       .  A
O629       Zr637   2.432       .  S
O629        C644   1.283       .  A
O630       Zr635   2.380       .  S
O630       Zr637   2.367       .  S
O631       Zr636   2.393       .  S
O631       Zr637   2.381       .  S
O631        H666   0.966       .  S
O632       Zr635   2.402       .  S
O632       Zr652   2.390       .  S
O632        H669   0.965       .  S
O633       Zr636   2.381       .  S
O633       Zr652   2.373       .  S
Zr634       O659   2.447       .  S
Zr634       O653   2.465       .  S
Zr634       O661   2.469       .  S
Zr634       O649   2.427       .  S
Zr634       O640   2.410       .  S
Zr634       O641   2.423       .  S
Zr634       O642   2.372       .  S
Zr634       O643   2.394       .  S
Zr635       O654   2.437       .  S
Zr635       O647   2.436       .  S
Zr635       O648   2.412       .  S
Zr635       O641   2.395       .  S
Zr635       O642   2.365       .  S
Zr636       O638   2.435       .  S
Zr636       O660   2.443       .  S
Zr636       O662   2.392       .  S
Zr636       O640   2.382       .  S
Zr636       O643   2.405       .  S
Zr637       O663   2.436       .  S
Zr637       O664   2.435       .  S
Zr637       O639   2.437       .  S
Zr637       O640   2.392       .  S
Zr637       O641   2.402       .  S
O638        H675   0.989       .  S
O639        H670   0.990       .  S
O639        H684   0.990       .  S
O641        H667   0.966       .  S
O642       Zr652   2.368       .  S
O643       Zr652   2.394       .  S
O643        H668   0.965       .  S
C645        C710   1.456       .  S
C646        C701   1.470       .  S
O647        H683   0.990       .  S
O648        C650   1.282       .  A
O649        C650   1.283       .  A
C650        C783   1.462       .  S
O651       Zr652   2.441       .  S
O651        H680   0.990       .  S
Zr652       O655   2.441       .  S
Zr652       O656   2.441       .  S
Zr652       O657   2.400       .  S
O653        C658   1.293       .  A
O654        H671   0.990       .  S
O654        H686   0.990       .  S
O655        H672   0.990       .  S
O656        H676   0.990       .  S
O656        H685   0.990       .  S
O657        C658   1.276       .  A
C658        C692   1.466       .  S
O659        H678   0.989       .  S
O659        H682   0.990       .  S
O660        H674   0.990       .  S
O660        H681   0.990       .  S
O661        C665   1.283       .  A
O662        C665   1.266       .  A
O663        H673   0.990       .  S
O664        H677   0.990       .  S
C688        C689   1.410       .  A
C688        C693   1.402       .  A
C688       C1059   1.491       .  S
C689        C690   1.420       .  A
C689        H694   1.083       .  S
C690        C691   1.411       .  A
C690        C751   1.491       .  S
C691        C692   1.401       .  A
C691        H695   1.084       .  S
C692        C693   1.382       .  A
C693        H696   1.085       .  S
C697        C698   1.407       .  A
C697        C702   1.399       .  A
C697        C888   1.475       .  S
C698        C699   1.413       .  A
C698        H703   1.083       .  S
C699        C700   1.396       .  A
C700        C701   1.396       .  A
C700        H704   1.081       .  S
C701        C702   1.398       .  A
C702        H705   1.084       .  S
C706        C707   1.418       .  A
C706        C711   1.398       .  A
C706        C933   1.486       .  S
C707        C708   1.425       .  A
C707        H712   1.083       .  S
C708        C709   1.404       .  A
C709        C710   1.402       .  A
C709        H713   1.082       .  S
C710        C711   1.386       .  A
C711        H714   1.085       .  S
Zr715       O716   2.439       .  S
Zr715       O717   2.451       .  S
Zr715       O718   2.438       .  S
Zr715       O721   2.513       .  S
Zr715       O723   2.386   1_545  S
Zr715       O724   2.371   1_545  S
Zr715       O725   2.424   1_545  S
Zr715       O726   2.391       .  S
O716        H772   0.990       .  S
O716        H780   0.990       .  S
O717        C737   1.290       .  A
O718        C739   1.286       .  A
O719       Zr729   2.397   1_545  S
O719        C738   1.274       .  A
O720       Zr728   2.439       .  S
O720        C739   1.285   1_565  A
O721        C738   1.298       .  A
O722       Zr730   2.393       .  S
O722        C737   1.275   1_565  A
O723       Zr728   2.371       .  S
O723       Zr730   2.358       .  S
O724       Zr729   2.393       .  S
O724       Zr730   2.389       .  S
O724        H759   0.965   1_565  S
O725       Zr728   2.409       .  S
O725       Zr745   2.409       .  S
O725        H762   0.966   1_565  S
O726       Zr729   2.375   1_545  S
O726       Zr745   2.388   1_545  S
Zr727       O752   2.441       .  S
Zr727       O746   2.451       .  S
Zr727       O754   2.475       .  S
Zr727       O742   2.408       .  S
Zr727       O733   2.374       .  S
Zr727       O734   2.422       .  S
Zr727       O735   2.379       .  S
Zr727       O736   2.380       .  S
Zr728       O747   2.436       .  S
Zr728       O740   2.435       .  S
Zr728       O741   2.433       .  S
Zr728       O734   2.411       .  S
Zr728       O735   2.381       .  S
Zr729       O731   2.437       .  S
Zr729       O753   2.435   1_565  S
Zr729       O755   2.397       .  S
Zr729       O733   2.371       .  S
Zr729       O736   2.395       .  S
Zr730       O756   2.437       .  S
Zr730       O757   2.435       .  S
Zr730       O732   2.438       .  S
Zr730       O733   2.369       .  S
Zr730       O734   2.391       .  S
O731        H768   0.990   1_565  S
O732        H763   0.990       .  S
O732        H777   0.990       .  S
O734        H760   0.965       .  S
O735       Zr745   2.365       .  S
O736       Zr745   2.397       .  S
O736        H761   0.965       .  S
C737        C794   1.463       .  S
O740        H776   0.990       .  S
O741        C743   1.285       .  A
O742        C743   1.281       .  A
C743        C785   1.474       .  S
O744       Zr745   2.440   1_545  S
O744        H773   0.990       .  S
Zr745       O748   2.438       .  S
Zr745       O749   2.443       .  S
Zr745       O750   2.426       .  S
O746        C751   1.288       .  A
O747        H764   0.990       .  S
O747        H779   0.990       .  S
O748        H765   0.990       .  S
O749        H769   0.990       .  S
O749        H778   0.990       .  S
O750        C751   1.282       .  A
O752        H771   0.991       .  S
O752        H775   0.990       .  S
O753        H767   0.989   1_545  S
O753        H774   0.985       .  S
O754        C758   1.291       .  A
O755        C758   1.279       .  A
O756        H766   0.990       .  S
O757        H770   0.990       .  S
C758        C803   1.473       .  S
C781        C782   1.403       .  A
C781        C786   1.404       .  A
C781       C1101   1.468       .  S
C782        C783   1.397       .  A
C782        H787   1.084       .  S
C783        C784   1.395       .  A
C784        C785   1.401       .  A
C784        H788   1.084       .  S
C785        C786   1.400       .  A
C786        H789   1.084       .  S
C790        C791   1.415       .  A
C790        C795   1.400       .  A
C790        C821   1.491       .  S
C791        C792   1.422       .  A
C791        H796   1.083       .  S
C792        C793   1.406       .  A
C793        C794   1.400       .  A
C793        H797   1.084   1_545  S
C794        C795   1.383       .  A
C795        H798   1.085       .  S
C799        C800   1.410       .  A
C799        C804   1.404       .  A
C799       C1143   1.482       .  S
C800        C801   1.409       .  A
C800        H805   1.083       .  S
C801        C802   1.403       .  A
C802        C803   1.408       .  A
C802        H806   1.085       .  S
C803        C804   1.394       .  A
C804        H807   1.085       .  S
C808        C809   1.398       .  A
C808        C813   1.402       .  A
C808        C846   1.483       .  S
C809        C810   1.410       .  A
C809        H814   1.081       .  S
C810        C811   1.410       .  A
C810        C835   1.516       .  S
C811        C812   1.412       .  A
C811        H815   1.069       .  S
C812        C813   1.408       .  A
C812        C818   1.506       .  S
C813        H816   1.083       .  S
C817        C818   1.416       .  A
C817        C822   1.415       .  A
C817        H824   1.082       .  S
C818        C819   1.417       .  A
C819        C820   1.394       .  A
C819        N826   1.433       .  S
C820        C821   1.403       .  A
C820        H825   1.085       .  S
C821        C822   1.410       .  A
C822        N823   1.437       .  S
N823        H827   1.046       .  S
N823        H828   1.046       .  S
N826        H829   1.046       .  S
N826        H830   1.046       .  S
C831        C832   1.404       .  A
C831        C836   1.415       .  A
C831        H838   1.083       .  S
C832        C833   1.413       .  A
C833        C834   1.393       .  A
C833        N840   1.435       .  S
C834        C835   1.410       .  A
C834        H839   1.079       .  S
C835        C836   1.426       .  A
C836        N837   1.436       .  S
N837        H841   1.046       .  S
N837        H842   1.045       .  S
N840        H843   1.046       .  S
N840        H844   1.046       .  S
C845        C846   1.400       .  A
C845        C850   1.400       .  A
C845        H852   1.084       .  S
C846        C847   1.414       .  A
C847        C848   1.406       .  A
C847        N854   1.438       .  S
C848        C849   1.401       .  A
C848        H853   1.084       .  S
C849        C850   1.420       .  A
C850        N851   1.439       .  S
N851        H855   1.045       .  S
N851        H856   1.042       .  S
N854        H857   1.046       .  S
N854        H858   1.046       .  S
C859        C860   1.405       .  A
C859        C864   1.405       .  A
C859        H866   1.084       .  S
C860        C861   1.417       .  A
C861        C862   1.399       .  A
C861        N868   1.440       .  S
C862        C863   1.402       .  A
C862        H867   1.085       .  S
C863        C864   1.415       .  A
C864        N865   1.438       .  S
N865        H869   1.045       .  S
N865        H870   1.044       .  S
N868        H871   1.042       .  S
N868        H872   1.046       .  S
C873        C874   1.409       .  A
C873        C878   1.394       .  A
C873        H880   1.080       .  S
C874        C875   1.427       .  A
C875        C876   1.409       .  A
C875        N882   1.436       .  S
C876        C877   1.403       .  A
C876        H881   1.083       .  S
C877        C878   1.410       .  A
C878        N879   1.440       .  S
N879        H883   1.046       .  S
N879        H884   1.045       .  S
N882        H885   1.044       .  S
N882        H886   1.045       .  S
C887        C888   1.404       .  A
C887        C892   1.404       .  A
C887        H894   1.084       .  S
C888        C889   1.414       .  A
C889        C890   1.399       .  A
C889        N896   1.439       .  S
C890        C891   1.405       .  A
C890        H895   1.085       .  S
C891        C892   1.415       .  A
C892        N893   1.437       .  S
N893        H897   1.045       .  S
N893        H898   1.043       .  S
N896        H899   1.044       .  S
N896        H900   1.046       .  S
C901        C902   1.406       .  A
C901        C906   1.406       .  A
C901        H908   1.084       .  S
C902        C903   1.412       .  A
C903        C904   1.409       .  A
C903        N910   1.437       .  S
C904        C905   1.405       .  A
C904        H909   1.084       .  S
C905        C906   1.417       .  A
C906        N907   1.439       .  S
N907        H911   1.046       .  S
N907        H912   1.044       .  S
N910        H913   1.045       .  S
N910        H914   1.046       .  S
C915        C916   1.408       .  A
C915        C920   1.410       .  A
C915        H922   1.083       .  S
C916        C917   1.415       .  A
C917        C918   1.411       .  A
C917        N924   1.437       .  S
C918        C919   1.405       .  A
C918        H923   1.084       .  S
C919        C920   1.412       .  A
C920        N921   1.439       .  S
N921        H925   1.046       .  S
N921        H926   1.045       .  S
N924        H927   1.045       .  S
N924        H928   1.046       .  S
C929        C930   1.404       .  A
C929        C934   1.406       .  A
C929        H936   1.084       .  S
C930        C931   1.413       .  A
C931        C932   1.409       .  A
C931        N938   1.437       .  S
C932        C933   1.404       .  A
C932        H937   1.084       .  S
C933        C934   1.419       .  A
C934        N935   1.438       .  S
N935        H939   1.046       .  S
N935        H940   1.044       .  S
N938        H941   1.045       .  S
N938        H942   1.046       .  S
C943        C944   1.399       .  A
C943        C948   1.398       .  A
C943        H950   1.084       .  S
C944        C945   1.407       .  A
C945        C946   1.400       .  A
C945        N952   1.438       .  S
C946        C947   1.403       .  A
C946        H951   1.084       .  S
C947        C948   1.414       .  A
C948        N949   1.438       .  S
N949        H953   1.046       .  S
N949        H954   1.043       .  S
N952        H955   1.045       .  S
N952        H956   1.046       .  S
C957        C958   1.405       .  A
C957        C962   1.395       .  A
C957        H964   1.084       .  S
C958        C959   1.409       .  A
C959        C960   1.403       .  A
C959        N966   1.437       .  S
C960        C961   1.401       .  A
C960        H965   1.084       .  S
C961        C962   1.412       .  A
C962        N963   1.439       .  S
N963        H967   1.046       .  S
N963        H968   1.044       .  S
N966        H969   1.045       .  S
N966        H970   1.046       .  S
C971        C972   1.404       .  A
C971        C976   1.396       .  A
C971        H978   1.082       .  S
C972        C973   1.422       .  A
C973        C974   1.406       .  A
C973        N980   1.433       .  S
C974        C975   1.409       .  A
C974        H979   1.082       .  S
C975        C976   1.421       .  A
C976        N977   1.440       .  S
N977        H981   1.046       .  S
N977        H982   1.046       .  S
N980        H983   1.045       .  S
N980        H984   1.042       .  S
C985        C986   1.402       .  A
C985        C990   1.398       .  A
C985        H992   1.085       .  S
C986        C987   1.410       .  A
C987        C988   1.399       .  A
C987        N994   1.438       .  S
C988        C989   1.406       .  A
C988        H993   1.084       .  S
C989        C990   1.409       .  A
C990        N991   1.439       .  S
N991        H995   1.046       .  S
N991        H996   1.046       .  S
N994        H997   1.044       .  S
N994        H998   1.046       .  S
C999       C1000   1.402       .  A
C999       C1004   1.395       .  A
C999       H1006   1.084       .  S
C1000      C1001   1.417       .  A
C1001      C1002   1.397       .  A
C1001      N1008   1.440       .  S
C1002      C1003   1.402       .  A
C1002      H1007   1.085       .  S
C1003      C1004   1.411       .  A
C1004      N1005   1.433       .  S
N1005      H1009   1.044       .  S
N1005      H1010   1.046       .  S
N1008      H1011   1.042       .  S
N1008      H1012   1.046       .  S
C1013      C1014   1.408       .  A
C1013      C1018   1.396       .  A
C1013      H1020   1.080       .  S
C1014      C1015   1.418       .  A
C1015      C1016   1.406       .  A
C1015      N1022   1.437       .  S
C1016      C1017   1.402       .  A
C1016      H1021   1.083       .  S
C1017      C1018   1.409       .  A
C1018      N1019   1.439       .  S
N1019      H1023   1.046       .  S
N1019      H1024   1.046       .  S
N1022      H1025   1.045       .  S
N1022      H1026   1.046       .  S
C1027      C1028   1.414       .  A
C1027      C1032   1.409       .  A
C1027      H1034   1.081       .  S
C1028      C1029   1.426       .  A
C1029      C1030   1.398       .  A
C1029      N1036   1.423       .  S
C1030      C1031   1.392       .  A
C1030      H1035   1.084       .  S
C1031      C1032   1.412       .  A
C1032      N1033   1.438       .  S
N1033      H1037   1.045       .  S
N1033      H1038   1.046       .  S
N1036      H1039   1.046       .  S
N1036      H1040   1.046       .  S
C1041      C1042   1.404       .  A
C1041      C1046   1.398       .  A
C1041      H1048   1.082       .  S
C1042      C1043   1.426       .  A
C1043      C1044   1.408       .  A
C1043      N1050   1.436       .  S
C1044      C1045   1.401       .  A
C1044      H1049   1.084       .  S
C1045      C1046   1.416       .  A
C1046      N1047   1.440       .  S
N1047      H1051   1.046       .  S
N1047      H1052   1.046       .  S
N1050      H1053   1.043       .  S
N1050      H1054   1.045       .  S
C1055      C1056   1.422       .  A
C1055      C1060   1.419       .  A
C1055      H1062   1.081       .  S
C1056      C1057   1.425       .  A
C1057      C1058   1.382       .  A
C1057      N1064   1.422       .  S
C1058      C1059   1.396       .  A
C1058      H1063   1.086       .  S
C1059      C1060   1.408       .  A
C1060      N1061   1.436       .  S
N1061      H1065   1.045       .  S
N1061      H1066   1.046       .  S
N1064      H1067   1.045       .  S
N1064      H1068   1.041       .  S
C1069      C1070   1.404       .  A
C1069      C1074   1.400       .  A
C1069      H1076   1.084       .  S
C1070      C1071   1.411       .  A
C1071      C1072   1.399       .  A
C1071      N1078   1.439       .  S
C1072      C1073   1.402       .  A
C1072      H1077   1.084       .  S
C1073      C1074   1.414       .  A
C1074      N1075   1.438       .  S
N1075      H1079   1.045       .  S
N1075      H1080   1.043       .  S
N1078      H1081   1.045       .  S
N1078      H1082   1.046       .  S
C1083      C1084   1.405       .  A
C1083      C1088   1.400       .  A
C1083      H1090   1.083       .  S
C1084      C1085   1.413       .  A
C1085      C1086   1.405       .  A
C1085      N1092   1.437       .  S
C1086      C1087   1.400       .  A
C1086      H1091   1.084       .  S
C1087      C1088   1.408       .  A
C1088      N1089   1.439       .  S
N1089      H1093   1.046       .  S
N1089      H1094   1.045       .  S
N1092      H1095   1.045       .  S
N1092      H1096   1.046       .  S
C1097      C1098   1.402       .  A
C1097      C1102   1.396       .  A
C1097      H1104   1.084       .  S
C1098      C1099   1.411       .  A
C1099      C1100   1.401       .  A
C1099      N1106   1.438       .  S
C1100      C1101   1.402       .  A
C1100      H1105   1.084       .  S
C1101      C1102   1.415       .  A
C1102      N1103   1.439       .  S
N1103      H1107   1.045       .  S
N1103      H1108   1.042       .  S
N1106      H1109   1.046       .  S
N1106      H1110   1.046       .  S
C1111      C1112   1.405       .  A
C1111      C1116   1.408       .  A
C1111      H1118   1.084       .  S
C1112      C1113   1.417       .  A
C1113      C1114   1.406       .  A
C1113      N1120   1.438       .  S
C1114      C1115   1.402       .  A
C1114      H1119   1.084       .  S
C1115      C1116   1.411       .  A
C1116      N1117   1.438       .  S
N1117      H1121   1.046       .  S
N1117      H1122   1.045       .  S
N1120      H1123   1.045       .  S
N1120      H1124   1.046       .  S
C1125      C1126   1.409       .  A
C1125      C1130   1.396       .  A
C1125      H1132   1.079       .  S
C1126      C1127   1.424       .  A
C1127      C1128   1.419       .  A
C1127      N1134   1.431       .  S
C1128      C1129   1.403       .  A
C1128      H1133   1.083       .  S
C1129      C1130   1.413       .  A
C1130      N1131   1.440       .  S
N1131      H1135   1.046       .  S
N1131      H1136   1.045       .  S
N1134      H1137   1.045       .  S
N1134      H1138   1.046       .  S
C1139      C1140   1.402       .  A
C1139      C1144   1.401       .  A
C1139      H1146   1.084       .  S
C1140      C1141   1.422       .  A
C1141      C1142   1.401       .  A
C1141      N1148   1.441       .  S
C1142      C1143   1.401       .  A
C1142      H1147   1.085       .  S
C1143      C1144   1.416       .  A
C1144      N1145   1.433       .  S
N1145      H1149   1.044       .  S
N1145      H1150   1.046       .  S
N1148      H1151   1.041       .  S
N1148      H1152   1.046       .  S
