geometry optimzed in LAMMPS
_audit_creation_date              2020-11-30 
_audit_creation_method            'lammps2cif' 
_symmetry_space_group_name_H-M    'P1' 
_symmetry_Int_Tables_number       1 
_symmetry_cell_setting            triclinic 
loop_ 
_symmetry_equiv_pos_as_xyz 
  x,y,z 
_cell_length_a                    35.96305459 
_cell_length_b                    31.036330047178804 
_cell_length_c                    25.21555651851215 
_cell_angle_alpha                 89.99873985402994 
_cell_angle_beta                  89.78358725243756 
_cell_angle_gamma                 90.24942125151546 
loop_ 
_atom_site_label 
_atom_site_type_symbol 
_atom_site_fract_x 
_atom_site_fract_y 
_atom_site_fract_z 
_atom_site_charge 
C1          C  0.68572104  0.21073317  0.68681700    -0.10000
C2          C  0.66990210  0.24968604  0.67116264    -0.03900
C3          C  0.68545056  0.28923039  0.68558089    -0.10000
C4          C  0.71811253  0.29009306  0.71658134     0.11000
C5          C  0.73416019  0.25064381  0.73360959    -0.01800
C6          C  0.71806478  0.21074626  0.71836398     0.10800
C7          C  0.73436747  0.17211302  0.73562273    -0.11800
C8          C  0.76570563  0.17259656  0.76807226    -0.11800
C9          C  0.78169997  0.21172213  0.78450816     0.10800
C10         C  0.76590748  0.25111918  0.76682118    -0.01800
C11         C  0.73464230  0.32919166  0.73194629    -0.11900
C12         C  0.76593370  0.32965939  0.76429345    -0.11900
C13         C  0.78160008  0.29104381  0.78270184     0.11000
C14         C  0.81250531  0.29123836  0.81689984    -0.10000
C15         C  0.82757992  0.25239260  0.83442323    -0.03900
C16         C  0.81289374  0.21274227  0.81855962    -0.10000
H17         H  0.72278107  0.14116853  0.72449478     0.08200
H18         H  0.77709330  0.14204802  0.78069944     0.08200
H19         H  0.72325826  0.35979043  0.71953954     0.08400
H20         H  0.77747800  0.36063384  0.77538905     0.08400
H21         H  0.64476207  0.24920453  0.64746300     0.04800
H22         H  0.85157258  0.25304874  0.86041076     0.04800
Zr23       Zr  0.50215775  0.56436328  0.43204308     2.17500
O24         O  0.50687642  0.57626199  0.33670667    -0.50500
O25         O  0.50063103  0.63874260  0.45956663    -0.73700
O26         O  0.44320920  0.59059654  0.39819237    -0.80500
O27         O  0.60733091  0.55227285  0.44834020    -0.82200
O28         O  0.39606591  0.55764753  0.44293124    -0.77800
O29         O  0.56288596  0.58819751  0.40231257    -0.89500
O30         O  0.49619689  0.63998285  0.54918864    -0.75400
O31         O  0.46035735  0.56589408  0.50514763    -0.84900
O32         O  0.53940772  0.56616171  0.50990454    -0.84600
O33         O  0.46481786  0.50092705  0.42220407    -0.71400
O34         O  0.53991894  0.50103872  0.42801656    -0.83500
Zr35       Zr  0.49753945  0.43881755  0.57236886     2.26400
Zr36       Zr  0.42400161  0.50186179  0.49747131     2.06300
Zr37       Zr  0.57603240  0.50227247  0.50770796     2.10000
Zr38       Zr  0.49749893  0.56666420  0.58266500     1.78800
O39         O  0.62463175  0.46435841  0.45937494    -0.92300
O40         O  0.44293528  0.59919341  0.62356745    -0.40100
O41         O  0.53475874  0.50269119  0.58243579    -0.76800
O42         O  0.46016354  0.50259278  0.57723593    -0.95400
O43         O  0.46050149  0.43785431  0.49452563    -0.88700
O44         O  0.53952138  0.43850801  0.49918626    -0.91600
C45         C  0.49812043  0.65870439  0.50388265     1.02200
C46         C  0.59688793  0.58019267  0.41397954     1.15100
C47         C  0.40856611  0.58507284  0.40904466     1.05900
O48         O  0.37535299  0.53510451  0.55080185    -0.93700
O49         O  0.39284222  0.44640747  0.54862084    -0.89500
O50         O  0.43642452  0.41167448  0.59790079    -0.82600
C51         C  0.40279782  0.41818039  0.58281680     1.12500
O52         O  0.50026559  0.45020456  0.32622553    -0.95700
Zr53       Zr  0.50232637  0.43737738  0.42160114     1.88900
O54         O  0.49993226  0.36436367  0.54330913    -0.72400
O55         O  0.38012548  0.46592913  0.43862851    -0.51600
O56         O  0.44790407  0.40135450  0.38474162    -0.96300
O57         O  0.55559671  0.40660373  0.37529212    -0.53500
O58         O  0.50607538  0.36384044  0.45359203    -0.72900
C59         C  0.50389172  0.34489500  0.49872502     0.99500
O60         O  0.49365250  0.42839632  0.66810667    -0.61700
O61         O  0.61930539  0.54232164  0.56346671    -0.56500
O62         O  0.55617117  0.41241060  0.60677683    -0.93200
O63         O  0.60335785  0.44993616  0.56794853    -0.91600
O64         O  0.55016987  0.60146569  0.62597918    -0.92000
O65         O  0.49611179  0.55791578  0.67861371    -0.90800
C66         C  0.59088525  0.42046578  0.59922170     1.18300
H67         H  0.55510479  0.59145913  0.51056584     0.34200
H68         H  0.44405142  0.50098070  0.60793117     0.45100
H69         H  0.55552478  0.41365387  0.49981852     0.38600
H70         H  0.45071249  0.50244956  0.38969427     0.35100
H71         H  0.45252380  0.62519047  0.64184134     0.26900
H72         H  0.35579091  0.47916568  0.44698200     0.32800
H73         H  0.45615214  0.37166963  0.37666087     0.38700
H74         H  0.55797907  0.62504275  0.60188555     0.33200
H75         H  0.64425361  0.53405098  0.55033160     0.32100
H76         H  0.64810961  0.47377234  0.47627839     0.33800
H77         H  0.54684376  0.37815671  0.36252427     0.32700
H78         H  0.49713272  0.52638121  0.68421288     0.36700
H79         H  0.51466173  0.44530237  0.68271365     0.29500
H80         H  0.49955930  0.60666658  0.33132965     0.33700
H81         H  0.49603200  0.42162509  0.30981839     0.36500
H82         H  0.61659719  0.57282144  0.55268132     0.29200
H83         H  0.47133103  0.44461255  0.67939818     0.42000
H84         H  0.38583634  0.53739273  0.58693027     0.32100
H85         H  0.42834620  0.61063090  0.59351032     0.39700
H86         H  0.57363228  0.39974945  0.40359486     0.31500
H87         H  0.38629499  0.47644290  0.40258543     0.31600
H88         H  0.48639915  0.55908163  0.32108382     0.31900
Zr89       Zr  0.50261786  0.93907683  0.42622386     2.17500
O90         O  0.50352783  0.92638817  0.33080193    -0.50500
O91         O  0.50031739  0.86477805  0.45582847    -0.73700
O92         O  0.56270988  0.91216694  0.39801682    -0.80500
O93         O  0.39720518  0.95085322  0.43109351    -0.82200
O94         O  0.60750285  0.94606418  0.44616265    -0.77800
O95         O  0.44391374  0.91515780  0.38939796    -0.89500
O96         O  0.50076785  0.86442227  0.54572830    -0.75400
O97         O  0.54030759  0.93777614  0.50348278    -0.84900
O98         O  0.46126790  0.93809017  0.49997406    -0.84600
O99         O  0.54060812  0.00264918  0.42042837    -0.71400
O100        O  0.46618295  0.00314841  0.41748125    -0.83500
Zr101      Zr  0.49954308  0.06437382  0.56701066     2.26400
Zr102      Zr  0.57737028  0.00162275  0.49954744     2.06300
Zr103      Zr  0.42521275  0.00196114  0.49247185     2.10000
Zr104      Zr  0.49888545  0.93771455  0.57707973     1.78800
O105        O  0.38095653  0.04002367  0.43693757    -0.92300
O106        O  0.55097899  0.90541731  0.62384727    -0.40100
O107        O  0.46141597  0.00111962  0.57204800    -0.76800
O108        O  0.53680596  0.00096273  0.57517125    -0.95400
O109        O  0.54130790  0.06581342  0.49364485    -0.88700
O110        O  0.46229857  0.06585676  0.48933113    -0.91600
C111        C  0.50024158  0.84531832  0.50073799     1.02200
C112        C  0.40931932  0.92279683  0.39785146     1.15100
C113        C  0.59667322  0.91819231  0.41167875     1.05900
O114        O  0.62229295  0.96662851  0.55705023    -0.93700
O115        O  0.60516160  0.05420910  0.55937090    -0.89500
O116        O  0.55841881  0.08907267  0.60234895    -0.82600
C117        C  0.59297462  0.08185916  0.59315478     1.12500
O118        O  0.50303894  0.05748193  0.32029801    -0.95700
Zr119      Zr  0.50408275  0.06704201  0.41629968     1.88900
O120        O  0.50245642  0.13875615  0.53942378    -0.72400
O121        O  0.62335992  0.03947684  0.44545055    -0.51600
O122        O  0.56088075  0.09579825  0.37667928    -0.96300
O123        O  0.45297961  0.10523550  0.37396275    -0.53500
O124        O  0.50783052  0.14047607  0.44967019    -0.72900
C125        C  0.50585737  0.15881669  0.49524375     0.99500
O126        O  0.49705381  0.07547815  0.66278507    -0.61700
O127        O  0.37858231  0.96324304  0.54442478    -0.56500
O128        O  0.43875242  0.09020058  0.59472377    -0.93200
O129        O  0.39406870  0.05386152  0.54908491    -0.91600
O130        O  0.44432296  0.90191781  0.61422042    -0.92000
O131        O  0.49508895  0.94973117  0.67242440    -0.90800
C132        C  0.40466456  0.08247798  0.58264193     1.18300
H133        H  0.44538119  0.91295503  0.49941791     0.34200
H134        H  0.55122517  0.00215184  0.60741165     0.45100
H135        H  0.44675807  0.09110481  0.48868236     0.38600
H136        H  0.55644226  0.00106700  0.38942632     0.35100
H137        H  0.54014492  0.88016217  0.64239299     0.26900
H138        H  0.64763183  0.02924689  0.45875479     0.32800
H139        H  0.55479193  0.12580041  0.36670175     0.38700
H140        H  0.45443895  0.87906565  0.63739256     0.33200
H141        H  0.35480014  0.96899337  0.52615438     0.32100
H142        H  0.35631152  0.02893527  0.44821063     0.33800
H143        H  0.44144420  0.12288631  0.40222485     0.32700
H144        H  0.48091215  0.97683009  0.67623177     0.36700
H145        H  0.47416537  0.06047533  0.67472340     0.29500
H146        H  0.51308307  0.89674444  0.32615446     0.33700
H147        H  0.50674686  0.08660109  0.30504476     0.36500
H148        H  0.38343973  0.93233962  0.53769109     0.29200
H149        H  0.51736163  0.05756180  0.67722181     0.42000
H150        H  0.64684095  0.97529534  0.54259722     0.32100
H151        H  0.56674402  0.89285155  0.59557961     0.39700
H152        H  0.43429059  0.08258559  0.36630323     0.31500
H153        H  0.62121943  0.02671815  0.40959683     0.31600
H154        H  0.52345864  0.94540819  0.31683685     0.31900
C155        C  0.30499037  0.28874263  0.66567449    -0.10000
C156        C  0.31959484  0.24961474  0.64799199    -0.03900
C157        C  0.30642444  0.21025025  0.66702560    -0.10000
C158        C  0.27715755  0.20935424  0.70437712     0.11000
C159        C  0.26183293  0.24873574  0.72286936    -0.01800
C160        C  0.27572744  0.28868752  0.70351136     0.12000
C161        C  0.25980940  0.32718824  0.72217094    -0.11800
C162        C  0.23121038  0.32653356  0.75985712    -0.11800
C163        C  0.21738007  0.28735610  0.77995113     0.10800
C164        C  0.23274156  0.24807709  0.76106560    -0.01800
C165        C  0.26290213  0.17015712  0.72365434    -0.11900
C166        C  0.23395897  0.16950165  0.76042249    -0.11900
C167        C  0.21860363  0.20803382  0.77963754     0.11000
C168        C  0.18916201  0.20763532  0.81668351    -0.10000
C169        C  0.17484367  0.24636241  0.83576714    -0.03900
C170        C  0.18822125  0.28607797  0.81789183    -0.10000
H171        H  0.26930782  0.35816260  0.70762389     0.08200
H172        H  0.21994612  0.35699140  0.77315389     0.08200
H173        H  0.27387523  0.13962512  0.71011655     0.08400
H174        H  0.22378878  0.13848192  0.77390908     0.08400
H175        H  0.34276010  0.24980823  0.62024784     0.04800
H176        H  0.15179297  0.24555647  0.86368911     0.04800
Zr177      Zr  0.99833671  0.43476135  0.93343110     2.17500
O178        O  0.99572415  0.41756362  0.83918140    -0.50500
O179        O  0.99651730  0.36154015  0.96594994    -0.73700
O180        O  0.05782361  0.40756331  0.90164154    -0.80500
O181        O  0.89282605  0.44952498  0.94271512    -0.82200
O182        O  0.10463194  0.44179866  0.94496608    -0.77800
O183        O  0.93833760  0.41285070  0.89933692    -0.89500
O184        O  0.99833490  0.36182778  0.05562786    -0.75400
O185        O  0.03831012  0.43417005  0.00822825    -0.84900
O186        O  0.95859365  0.43597976  0.00922403    -0.84600
O187        O  0.03696599  0.49730667  0.92298335    -0.71400
O188        O  0.96195237  0.49887013  0.92435625    -0.83500
Zr189      Zr  0.00141623  0.56331240  0.06914416     2.26400
Zr190      Zr  0.07603985  0.49729812  0.99953398     2.06300
Zr191      Zr  0.92335252  0.50076757  0.00173317     2.10000
Zr192      Zr  0.99873146  0.43646698  0.08380750     1.78800
O193        O  0.87933170  0.54122304  0.94826074    -0.92300
O194        O  0.05072294  0.40263750  0.12911301    -0.40100
O195        O  0.96265987  0.50085492  0.07815557    -0.76800
O196        O  0.03768308  0.49900769  0.07751998    -0.95400
O197        O  0.04059616  0.56182793  0.99296571    -0.88700
O198        O  0.96129533  0.56369692  0.99413574    -0.91600
C199        C  0.99722451  0.34225292  0.01087590     1.02200
C200        C  0.90405856  0.42139413  0.90888768     1.15100
C201        C  0.09245445  0.41367725  0.91182593     1.05900
O202        O  0.12490645  0.46349986  0.05136094    -0.93700
O203        O  0.10718872  0.55006673  0.05518576    -0.89500
O204        O  0.06226723  0.58856112  0.09740577    -0.82600
C205        C  0.09645078  0.57971466  0.08722148     1.12500
O206        O  0.00282198  0.54349710  0.82418715    -0.95700
Zr207      Zr  0.00057191  0.56165074  0.91826146     1.88900
O208        O  0.00231014  0.63720739  0.03814288    -0.72400
O209        O  0.11847985  0.53358660  0.93855214    -0.51600
O210        O  0.05324561  0.59738514  0.87574477    -0.96300
O211        O  0.94758702  0.59368453  0.87313152    -0.53500
O212        O  0.00126401  0.63586922  0.94809851    -0.72900
C213        C  0.00199737  0.65578738  0.99267007     0.99500
O214        O  0.00375965  0.57589043  0.16465988    -0.61700
O215        O  0.87525300  0.46809513  0.05710866    -0.56500
O216        O  0.94210514  0.58821035  0.10420270    -0.93200
O217        O  0.89547058  0.55276562  0.06152579    -0.91600
O218        O  0.94347299  0.40722521  0.12698049    -0.92000
O219        O  0.99916701  0.45052995  0.17880507    -0.90800
C220        C  0.90754935  0.58065905  0.09495002     1.18300
H221        H  0.94229085  0.41120510  0.01032013     0.34200
H222        H  0.05304389  0.50070467  0.10883433     0.45100
H223        H  0.94595031  0.58911838  0.99367014     0.38600
H224        H  0.05190667  0.49482466  0.89118412     0.35100
H225        H  0.03977105  0.37719544  0.14712583     0.26900
H226        H  0.11664320  0.56451744  0.94778697     0.32800
H227        H  0.04262136  0.62330818  0.85873754     0.38700
H228        H  0.92666342  0.43218626  0.13124475     0.33200
H229        H  0.85158904  0.47997867  0.04359024     0.32100
H230        H  0.85457272  0.53079680  0.95998997     0.33800
H231        H  0.93484187  0.61124935  0.90038944     0.32700
H232        H  0.98523427  0.47776468  0.18302146     0.36700
H233        H  0.98190495  0.56049852  0.17947896     0.29500
H234        H  0.00380270  0.38718894  0.83632302     0.33700
H235        H  0.00000776  0.57114288  0.80507048     0.36500
H236        H  0.87471424  0.43739316  0.04658137     0.29200
H237        H  0.02513289  0.55873709  0.17724558     0.42000
H238        H  0.11315774  0.45716748  0.08607724     0.32100
H239        H  0.06620786  0.39038253  0.10032970     0.39700
H240        H  0.93040583  0.56927024  0.86651294     0.31500
H241        H  0.14355997  0.52504019  0.95058575     0.31600
H242        H  0.01596031  0.43463538  0.82254997     0.31900
Zr243      Zr  0.99954811  0.93465031  0.06681115     2.17500
O244        O  0.00189986  0.91816689  0.16134108    -0.50500
O245        O  0.99944562  0.86115495  0.03484730    -0.73700
O246        O  0.93988989  0.91091846  0.10099826    -0.80500
O247        O  0.10448272  0.94338379  0.05484196    -0.82200
O248        O  0.89434361  0.94647028  0.05668158    -0.77800
O249        O  0.05848772  0.90929553  0.10068986    -0.89500
O250        O  0.99789455  0.86142766  0.94486860    -0.75400
O251        O  0.95885045  0.93591522  0.99252901    -0.84900
O252        O  0.03806619  0.93344343  0.98994101    -0.84600
O253        O  0.96332562  0.99882976  0.07725047    -0.71400
O254        O  0.03883320  0.99682858  0.07430437    -0.83500
Zr255      Zr  0.00066414  0.06286389  0.93054700     2.26400
Zr256      Zr  0.92384527  0.00096710  0.00076601     2.06300
Zr257      Zr  0.07630157  0.99605879  0.99562813     2.10000
Zr258      Zr  0.99755712  0.93590442  0.91592845     1.78800
O259        O  0.12853586  0.02844499  0.04230514    -0.92300
O260        O  0.94202736  0.90558112  0.87508685    -0.40100
O261        O  0.03646215  0.99861807  0.91986497    -0.76800
O262        O  0.96170845  0.00049709  0.92238945    -0.95400
O263        O  0.96214466  0.06356326  0.00732000    -0.88700
O264        O  0.04122288  0.06081542  0.00495381    -0.91600
C265        C  0.99905760  0.84204396  0.98976439     1.02200
C266        C  0.09288534  0.91582935  0.08931637     1.15100
C267        C  0.90568723  0.91838078  0.09037982     1.05900
O268        O  0.87459492  0.96861402  0.94783534    -0.93700
O269        O  0.89557839  0.05618668  0.94500760    -0.89500
O270        O  0.94160614  0.09024500  0.89900528    -0.82600
C271        C  0.90723819  0.08402885  0.91089439     1.12500
O272        O  0.01030263  0.04476817  0.17541877    -0.95700
Zr273      Zr  0.00260147  0.06106149  0.08148881     1.88900
O274        O  0.00051509  0.13632983  0.96271060    -0.72400
O275        O  0.88004780  0.04015034  0.05649401    -0.51600
O276        O  0.95006988  0.08869835  0.13224601    -0.96300
O277        O  0.05621188  0.09879185  0.11854340    -0.53500
O278        O  0.99726392  0.13500313  0.05240282    -0.72900
C279        C  0.99827399  0.15503609  0.00798054     0.99500
O280        O  0.00104020  0.07557895  0.83496000    -0.61700
O281        O  0.11550638  0.95558700  0.93449897    -0.56500
O282        O  0.06070356  0.08721239  0.89832801    -0.93200
O283        O  0.10638238  0.04936382  0.93920628    -0.91600
O284        O  0.05130061  0.90583089  0.87017950    -0.92000
O285        O  0.99597764  0.94668118  0.82029069    -0.90800
C286        C  0.09501490  0.07851917  0.90704654     1.18300
H287        H  0.05332778  0.90796536  0.98868898     0.34200
H288        H  0.94634309  0.00298511  0.89116806     0.45100
H289        H  0.05746890  0.08561120  0.00549641     0.38600
H290        H  0.94855726  0.99714161  0.10930720     0.35100
H291        H  0.95051927  0.87853843  0.85821667     0.26900
H292        H  0.85526259  0.02954198  0.04536655     0.32800
H293        H  0.95842014  0.11720009  0.14536531     0.38700
H294        H  0.04471892  0.87530923  0.86353006     0.33200
H295        H  0.14022167  0.96963429  0.93669916     0.32100
H296        H  0.15083545  0.01480366  0.02654331     0.33800
H297        H  0.06244365  0.12199110  0.09303013     0.32700
H298        H  0.00252048  0.97743893  0.81533764     0.36700
H299        H  0.02230403  0.05872330  0.82118743     0.29500
H300        H  0.99137322  0.88878623  0.16522299     0.33700
H301        H  0.00857534  0.07278391  0.19403005     0.36500
H302        H  0.11898346  0.92714971  0.95150600     0.29200
H303        H  0.97905498  0.05983916  0.82135660     0.42000
H304        H  0.88485927  0.96719406  0.91139828     0.32100
H305        H  0.92634748  0.89596722  0.90524590     0.39700
H306        H  0.07691857  0.07805319  0.11508103     0.31500
H307        H  0.88344071  0.02832837  0.09259720     0.31600
H308        H  0.98346580  0.93747055  0.17820715     0.31900
C309        C  0.31557763  0.79182253  0.30955382    -0.10000
C310        C  0.33088473  0.75315197  0.32726393    -0.03900
C311        C  0.31646516  0.71331430  0.31169485    -0.10000
C312        C  0.28570045  0.71166612  0.27703451     0.11000
C313        C  0.26943603  0.75072186  0.25932237    -0.01800
C314        C  0.28429781  0.79100807  0.27585053     0.10800
C315        C  0.26778176  0.82924041  0.25785799    -0.11800
C316        C  0.23667182  0.82802869  0.22509782    -0.11800
C317        C  0.22145156  0.78855475  0.20838287     0.10800
C318        C  0.23835486  0.74950836  0.22485038    -0.01800
C319        C  0.27087198  0.67219172  0.25956458    -0.11900
C320        C  0.24057619  0.67100969  0.22520670    -0.11900
C321        C  0.22389096  0.70926206  0.20753669     0.11000
C322        C  0.19272468  0.70852375  0.17359021    -0.10000
C323        C  0.17597746  0.74718764  0.15863221    -0.03900
C324        C  0.18954097  0.78695635  0.17594533    -0.10000
H325        H  0.27856703  0.86044376  0.26948616     0.08200
H326        H  0.22461810  0.85834298  0.21290656     0.08200
H327        H  0.28267970  0.64188443  0.27228113     0.08400
H328        H  0.23017934  0.63983406  0.21274896     0.08400
H329        H  0.35494583  0.75408542  0.35311737     0.04800
H330        H  0.15139543  0.74625781  0.13379119     0.04800
C331        C  0.69139818  0.78710878  0.32624649    -0.10000
C332        C  0.67754571  0.74768845  0.34430452    -0.03900
C333        C  0.69257003  0.70877832  0.32699904    -0.10000
C334        C  0.72292127  0.70874976  0.29156886     0.11000
C335        C  0.73765963  0.74858352  0.27341229    -0.01800
C336        C  0.72165046  0.78799783  0.29038180     0.10800
C337        C  0.73639198  0.82706485  0.27131571    -0.11800
C338        C  0.76654121  0.82744506  0.23641502    -0.11800
C339        C  0.78300932  0.78877497  0.21958782     0.10800
C340        C  0.76832524  0.74896268  0.23803944    -0.01800
C341        C  0.73879155  0.67003061  0.27385103    -0.11900
C342        C  0.76909777  0.67040156  0.23942391    -0.11900
C343        C  0.78435822  0.70949661  0.22134975     0.11000
C344        C  0.81525775  0.71025062  0.18685255    -0.10000
C345        C  0.82941435  0.74957189  0.16887985    -0.03900
C346        C  0.81376623  0.78865744  0.18462695    -0.10000
H347        H  0.72481209  0.85767210  0.28346155     0.08200
H348        H  0.77694314  0.85832617  0.22281336     0.08200
H349        H  0.72809401  0.63911747  0.28689086     0.08400
H350        H  0.78052393  0.63975482  0.22711831     0.08400
H351        H  0.65383959  0.74724662  0.37108968     0.04800
H352        H  0.85327703  0.74976746  0.14238800     0.04800
C353        C  0.84903588  0.87192277  0.08809813     0.24400
C354        C  0.87778488  0.89115834  0.11749800    -0.23700
C355        C  0.88204678  0.88016175  0.17134775     0.19400
C356        C  0.85880617  0.84920681  0.19467840     0.24400
C357        C  0.83160004  0.82830201  0.16427336    -0.23600
C358        C  0.82624512  0.84051229  0.11128932     0.19300
F359        F  0.80040408  0.82005819  0.08118782    -0.13600
F360        F  0.84518193  0.88068989  0.03565793    -0.15900
F361        F  0.86429005  0.83763234  0.24598988    -0.15900
F362        F  0.90957626  0.89817632  0.20077784    -0.13600
C363        C  0.17831264  0.84698673  0.11238917     0.24400
C364        C  0.16871091  0.82571518  0.15949882    -0.23700
C365        C  0.13626438  0.83762322  0.18677384     0.19400
C366        C  0.11251510  0.86873167  0.16550240     0.24400
C367        C  0.12075935  0.88824150  0.11624201    -0.23600
C368        C  0.15463481  0.87802521  0.09086124     0.19300
F369        F  0.16384422  0.89593412  0.04346377    -0.13600
F370        F  0.20979198  0.83602269  0.08586492    -0.15900
F371        F  0.08109739  0.87906306  0.19263083    -0.15900
F372        F  0.12692455  0.81790493  0.23305467    -0.13600
C373        C  0.99805714  0.22559879  0.05757551     0.24400
C374        C  0.99710282  0.20289891  0.00907855    -0.23700
C375        C  0.99562783  0.22662233  0.96150265     0.19400
C376        C  0.99571744  0.27150837  0.96224040     0.24400
C377        C  0.99680164  0.29430963  0.01062989    -0.23600
C378        C  0.99775837  0.27061116  0.05834683     0.19300
F379        F  0.99868958  0.29070175  0.10617640    -0.13600
F380        F  0.99970816  0.20450352  0.10470638    -0.15900
F381        F  0.99495545  0.29237982  0.91492721    -0.15900
F382        F  0.99416407  0.20665524  0.91362664    -0.13600
C383        C  0.98546018  0.72556322  0.94889085     0.24400
C384        C  0.00205670  0.70344111  0.99138377    -0.23700
C385        C  0.01839356  0.72735023  0.03267632     0.19400
C386        C  0.01756969  0.77232865  0.03193998     0.24400
C387        C  0.00045283  0.79443115  0.98983781    -0.23600
C388        C  0.98474489  0.77054024  0.94806188     0.19300
F389        F  0.96762172  0.79058371  0.90703893    -0.13600
F390        F  0.96881947  0.70371023  0.90873854    -0.15900
F391        F  0.03430659  0.79421905  0.07200858    -0.15900
F392        F  0.03597519  0.70729521  0.07330332    -0.13600
C393        C  0.84819138  0.62235886  0.09572550     0.24400
C394        C  0.87988587  0.60761639  0.12284221    -0.23700
C395        C  0.88665619  0.62249917  0.17471556     0.19400
C396        C  0.86373021  0.65383829  0.19737573     0.24400
C397        C  0.83405859  0.67087860  0.16834385    -0.23600
C398        C  0.82567356  0.65409406  0.11822780     0.19300
F399        F  0.79693035  0.67035888  0.08989578    -0.13600
F400        F  0.84065680  0.60869221  0.04574189    -0.15900
F401        F  0.87159266  0.66926592  0.24648206    -0.15900
F402        F  0.91608991  0.60769155  0.20280414    -0.13600
C403        C  0.11804832  0.62449787  0.16373788     0.24400
C404        C  0.12515481  0.60655165  0.11343764    -0.23700
C405        C  0.15840621  0.61767366  0.08679827     0.19400
C406        C  0.18230446  0.64894169  0.10813782     0.24400
C407        C  0.17376227  0.66846472  0.15690030    -0.23600
C408        C  0.14233460  0.65487747  0.18535418     0.19300
F409        F  0.13389799  0.67336432  0.23266478    -0.13600
F410        F  0.08683373  0.61385254  0.19127690    -0.15900
F411        F  0.21240870  0.66215017  0.07972176    -0.15900
F412        F  0.16633196  0.60089400  0.03832806    -0.13600
C413        C  0.11037766  0.36548863  0.83576581     0.24400
C414        C  0.11984535  0.38561127  0.88407202    -0.23700
C415        C  0.15464969  0.37616043  0.90701695     0.19400
C416        C  0.17817555  0.34543360  0.88383373     0.24400
C417        C  0.16787965  0.32461575  0.83666297    -0.23600
C418        C  0.13407544  0.33523189  0.81258992     0.19300
F419        F  0.12299177  0.31420864  0.76810590    -0.13600
F420        F  0.07771212  0.37425801  0.81132590    -0.15900
F421        F  0.20989907  0.33401803  0.90914297    -0.15900
F422        F  0.16499752  0.39457514  0.95355706    -0.13600
C423        C  0.13758257  0.15498036  0.80738813     0.24400
C424        C  0.17001433  0.16786649  0.83371587    -0.23700
C425        C  0.18024996  0.14740325  0.88097387     0.19400
C426        C  0.15690019  0.11623658  0.90369182     0.24400
C427        C  0.12299934  0.10526645  0.87913413    -0.23600
C428        C  0.11435283  0.12373283  0.82967990     0.19300
F429        F  0.08259456  0.11286195  0.80387654    -0.13600
F430        F  0.12721092  0.17474892  0.76176586    -0.15900
F431        F  0.16601248  0.09955213  0.95167109    -0.15900
F432        F  0.21159947  0.15973155  0.90678230    -0.13600
C433        C  0.62086627  0.87622272  0.33395192     0.24400
C434        C  0.62479989  0.88977011  0.38702083    -0.23700
C435        C  0.65374378  0.87251194  0.41776794     0.19400
C436        C  0.67709520  0.84087780  0.39664945     0.24400
C437        C  0.67197536  0.82618748  0.34459148    -0.23600
C438        C  0.64422290  0.84452208  0.31302364     0.19300
F439        F  0.63847571  0.82991601  0.26293088    -0.13600
F440        F  0.59379883  0.89287121  0.30275232    -0.15900
F441        F  0.70349340  0.82282954  0.42783735    -0.15900
F442        F  0.65767505  0.88382317  0.46945536    -0.13600
C443        C  0.39244765  0.87343465  0.32269247     0.24400
C444        C  0.38183344  0.89567835  0.36908864    -0.23700
C445        C  0.34612558  0.88783982  0.39065879     0.19400
C446        C  0.32300820  0.85607920  0.36876452     0.24400
C447        C  0.33513386  0.83186406  0.32508116    -0.23600
C448        C  0.36944722  0.84157306  0.30135294     0.19300
F449        F  0.38164074  0.81821001  0.25925557    -0.13600
F450        F  0.42577678  0.88120675  0.29900427    -0.15900
F451        F  0.28990270  0.84694816  0.39235607    -0.15900
F452        F  0.33458647  0.90849435  0.43520705    -0.13600
C453        C  0.38157466  0.12674352  0.65889723     0.24400
C454        C  0.37590199  0.10975327  0.60776373    -0.23700
C455        C  0.34404966  0.12217065  0.57919336     0.19400
C456        C  0.31976412  0.15298597  0.60010294     0.24400
C457        C  0.32671645  0.17136206  0.64990855    -0.23600
C458        C  0.35709354  0.15721062  0.67977605     0.19300
F459        F  0.36418334  0.17482376  0.72799498    -0.13600
F460        F  0.41145716  0.11484217  0.68810401    -0.15900
F461        F  0.29054521  0.16659581  0.57065965    -0.15900
F462        F  0.33786658  0.10698267  0.52947760    -0.13600
C463        C  0.48630797  0.27346199  0.53768007     0.24400
C464        C  0.50589689  0.29733367  0.49918495    -0.23700
C465        C  0.52683034  0.27525530  0.46053957     0.19400
C466        C  0.52732062  0.23021569  0.45959927     0.24400
C467        C  0.50681215  0.20639278  0.49718547    -0.23600
C468        C  0.48663830  0.22850397  0.53656474     0.19300
F469        F  0.46602808  0.20663968  0.57300981    -0.13600
F470        F  0.46568604  0.29356282  0.57543732    -0.15900
F471        F  0.54850916  0.20996287  0.42260786    -0.15900
F472        F  0.54752144  0.29724352  0.42430170    -0.13600
C473        C  0.48714264  0.73026690  0.54775246     0.24400
C474        C  0.49786962  0.70649823  0.50265019    -0.23700
C475        C  0.50898779  0.72903313  0.45659270     0.19400
C476        C  0.50973095  0.77399100  0.45589988     0.24400
C477        C  0.49916311  0.79764102  0.50106222    -0.23600
C478        C  0.48761050  0.77517735  0.54687614     0.19300
F479        F  0.47619022  0.79652358  0.59101768    -0.13600
F480        F  0.47584461  0.71028269  0.59297931    -0.15900
F481        F  0.52180935  0.79420696  0.41123229    -0.15900
F482        F  0.52018924  0.70776971  0.41230081    -0.13600
C483        C  0.65818173  0.61893885  0.41455570     0.24400
C484        C  0.62565835  0.60654589  0.38733258    -0.23700
C485        C  0.61888518  0.62363329  0.33654798     0.19400
C486        C  0.64270044  0.65463021  0.31508868     0.24400
C487        C  0.67341457  0.66916253  0.34404822    -0.23600
C488        C  0.68180119  0.65032775  0.39303464     0.19300
F489        F  0.71148539  0.66438930  0.42141225    -0.13600
F490        F  0.66548322  0.60353436  0.46381868    -0.15900
F491        F  0.63447224  0.67265542  0.26751013    -0.15900
F492        F  0.58828722  0.61180014  0.30862510    -0.13600
C493        C  0.32639096  0.65843667  0.38251623     0.24400
C494        C  0.33548291  0.67459562  0.33213760    -0.23700
C495        C  0.36660210  0.65842509  0.30523051     0.19400
C496        C  0.38966571  0.62823172  0.32960581     0.24400
C497        C  0.38159832  0.61305484  0.38108758    -0.23600
C498        C  0.34892973  0.62739968  0.40660416     0.19300
F499        F  0.34004676  0.61360326  0.45617802    -0.13600
F500        F  0.29672898  0.67445894  0.40940523    -0.15900
F501        F  0.42037125  0.61450517  0.30318880    -0.15900
F502        F  0.37558341  0.67344153  0.25624095    -0.13600
C503        C  0.34643608  0.35240393  0.68034012     0.24400
C504        C  0.32379356  0.32823529  0.64601363    -0.23700
C505        C  0.32519134  0.33652913  0.59118545     0.19400
C506        C  0.34968230  0.36752871  0.57088315     0.24400
C507        C  0.37361665  0.39010645  0.60503506    -0.23600
C508        C  0.37121585  0.38312816  0.65995123     0.19300
F509        F  0.39361349  0.40527504  0.69363480    -0.13600
F510        F  0.34648847  0.34399952  0.73316512    -0.15900
F511        F  0.35205150  0.37312568  0.51753735    -0.15900
F512        F  0.30458609  0.31251610  0.55706117    -0.13600
C513        C  0.82518054  0.15846770  0.88964161     0.24400
C514        C  0.83207760  0.17366579  0.83806789    -0.23700
C515        C  0.86177599  0.15647489  0.80884347     0.19400
C516        C  0.88544870  0.12606215  0.83177428     0.24400
C517        C  0.87949426  0.11185585  0.88425302    -0.23600
C518        C  0.84839940  0.12741892  0.91237497     0.19300
F519        F  0.84205755  0.11504454  0.96327297    -0.13600
F520        F  0.79718741  0.17555948  0.91903041    -0.15900
F521        F  0.91479613  0.11137568  0.80308349    -0.15900
F522        F  0.86904732  0.17101077  0.75907227    -0.13600
C523        C  0.86226927  0.34627449  0.80741974     0.24400
C524        C  0.83087349  0.33117376  0.83471743    -0.23700
C525        C  0.82037973  0.35041166  0.88276164     0.19400
C526        C  0.84270185  0.38252927  0.90533951     0.24400
C527        C  0.87606816  0.39526537  0.88021014    -0.23600
C528        C  0.88466737  0.37821029  0.82981594     0.19300
F529        F  0.91560752  0.39118926  0.80313329    -0.13600
F530        F  0.87238727  0.32816345  0.76053725    -0.15900
F531        F  0.83321462  0.39846674  0.95364322    -0.15900
F532        F  0.78985700  0.33603457  0.90935643    -0.13600
C533        C  0.63375717  0.15810457  0.69489063     0.24400
C534        C  0.66663362  0.17107869  0.66941005    -0.23700
C535        C  0.67748310  0.15099871  0.62209410     0.19400
C536        C  0.65470825  0.11966323  0.59889534     0.24400
C537        C  0.62030572  0.10864176  0.62234749    -0.23600
C538        C  0.61074012  0.12710375  0.67166988     0.19300
F539        F  0.57847023  0.11634862  0.69659410    -0.13600
F540        F  0.62292224  0.17740552  0.74072005    -0.15900
F541        F  0.66502186  0.10272638  0.55145968    -0.15900
F542        F  0.70880725  0.16408012  0.59643175    -0.13600
C543        C  0.63051304  0.33729963  0.69324306     0.24400
C544        C  0.66496109  0.32840822  0.66950883    -0.23700
C545        C  0.67686037  0.35311503  0.62599983     0.19400
C546        C  0.65381826  0.38515094  0.60502029     0.24400
C547        C  0.61809600  0.39232816  0.62671920    -0.23600
C548        C  0.60732302  0.36894403  0.67225134     0.19300
F549        F  0.57383002  0.37576438  0.69576159    -0.13600
F550        F  0.61858429  0.31374660  0.73543600    -0.15900
F551        F  0.66558767  0.40704943  0.56142336    -0.15900
F552        F  0.70980142  0.34441431  0.60188744    -0.13600
loop_ 
_geom_bond_atom_site_label_1 
_geom_bond_atom_site_label_2 
_geom_bond_distance 
_geom_bond_site_symmetry_2 
_ccdc_geom_bond_type 
C1            C2   1.396       .  A
C1            C6   1.412       .  A
C1          C534   1.474       .  S
C2            C3   1.395       .  A
C2           H21   1.086       .  S
C3            C4   1.414       .  A
C3          C544   1.482       .  S
C4            C5   1.423       .  A
C4           C11   1.404       .  A
C5            C6   1.418       .  A
C5           C10   1.419       .  A
C6            C7   1.407       .  A
C7            C8   1.395       .  A
C7           H17   1.083       .  S
C8            C9   1.405       .  A
C8           H18   1.083       .  S
C9           C10   1.423       .  A
C9           C16   1.416       .  A
C10          C13   1.418       .  A
C11          C12   1.392       .  A
C11          H19   1.082       .  S
C12          C13   1.406       .  A
C12          H20   1.083       .  S
C13          C14   1.409       .  A
C14          C15   1.396       .  A
C14         C524   1.473       .  S
C15          C16   1.396       .  A
C15          H22   1.086       .  S
C16         C514   1.483       .  S
Zr23         O24   2.437       .  S
Zr23         O25   2.411       .  S
Zr23         O26   2.432       .  S
Zr23         O29   2.419       .  S
Zr23         O31   2.375       .  S
Zr23         O32   2.382       .  S
Zr23         O33   2.392       .  S
Zr23         O34   2.396       .  S
O24          H80   0.990       .  S
O24          H88   0.990       .  S
O25          C45   1.281       .  A
O26          C47   1.285       .  A
O27         Zr37   2.427       .  S
O27          C46   1.284       .  A
O28         Zr36   2.434       .  S
O28          C47   1.285       .  A
O29          C46   1.284       .  A
O30         Zr38   2.428       .  S
O30          C45   1.283       .  A
O31         Zr36   2.382       .  S
O31         Zr38   2.372       .  S
O32         Zr37   2.386       .  S
O32         Zr38   2.370       .  S
O32          H67   0.965       .  S
O33         Zr36   2.395       .  S
O33         Zr53   2.394       .  S
O33          H70   0.967       .  S
O34         Zr37   2.397       .  S
O34         Zr53   2.395       .  S
Zr35         O60   2.439       .  S
Zr35         O54   2.426       .  S
Zr35         O62   2.429       .  S
Zr35         O50   2.435       .  S
Zr35         O41   2.401       .  S
Zr35         O42   2.400       .  S
Zr35         O43   2.376       .  S
Zr35         O44   2.380       .  S
Zr36         O55   2.437       .  S
Zr36         O48   2.436       .  S
Zr36         O49   2.419       .  S
Zr36         O42   2.399       .  S
Zr36         O43   2.387       .  S
Zr37         O39   2.434       .  S
Zr37         O61   2.438       .  S
Zr37         O63   2.437       .  S
Zr37         O41   2.394       .  S
Zr37         O44   2.380       .  S
Zr38         O64   2.438       .  S
Zr38         O65   2.435       .  S
Zr38         O40   2.436       .  S
Zr38         O41   2.400       .  S
Zr38         O42   2.399       .  S
O39          H76   0.990       .  S
O40          H71   0.990       .  S
O40          H85   0.990       .  S
O42          H68   0.966       .  S
O43         Zr53   2.371       .  S
O44         Zr53   2.374       .  S
O44          H69   0.965       .  S
C45         C474   1.484       .  S
C46         C484   1.476       .  S
C47         C497   1.485       .  S
O48          H84   0.990       .  S
O49          C51   1.282       .  A
O50          C51   1.286       .  A
C51         C507   1.470       .  S
O52         Zr53   2.439       .  S
O52          H81   0.990       .  S
Zr53         O56   2.437       .  S
Zr53         O57   2.438       .  S
Zr53         O58   2.425       .  S
O54          C59   1.284       .  A
O55          H72   0.990       .  S
O55          H87   0.990       .  S
O56          H73   0.990       .  S
O57          H77   0.990       .  S
O57          H86   0.990       .  S
O58          C59   1.283       .  A
C59         C464   1.478       .  S
O60          H79   0.990       .  S
O60          H83   0.990       .  S
O61          H75   0.990       .  S
O61          H82   0.990       .  S
O62          C66   1.286       .  A
O63          C66   1.286       .  A
O64          H74   0.990       .  S
O65          H78   0.990       .  S
C66         C547   1.488       .  S
Zr89         O90   2.438       .  S
Zr89         O91   2.425       .  S
Zr89         O92   2.424       .  S
Zr89         O95   2.423       .  S
Zr89         O97   2.378       .  S
Zr89         O98   2.377       .  S
Zr89         O99   2.399   1_565  S
Zr89        O100   2.397   1_565  S
O90         H146   0.990       .  S
O90         H154   0.990       .  S
O91         C111   1.283       .  A
O92         C113   1.283       .  A
O93        Zr103   2.434   1_565  S
O93         C112   1.285       .  A
O94        Zr102   2.442   1_565  S
O94         C113   1.287       .  A
O95         C112   1.285       .  A
O96        Zr104   2.409       .  S
O96         C111   1.280       .  A
O97        Zr102   2.385   1_565  S
O97        Zr104   2.375       .  S
O98        Zr103   2.381   1_565  S
O98        Zr104   2.373       .  S
O98         H133   0.965       .  S
O99        Zr102   2.398       .  S
O99        Zr119   2.399       .  S
O99         H136   0.967       .  S
O100       Zr103   2.393       .  S
O100       Zr119   2.401       .  S
Zr101       O126   2.441       .  S
Zr101       O120   2.413       .  S
Zr101       O128   2.432       .  S
Zr101       O116   2.422       .  S
Zr101       O107   2.393       .  S
Zr101       O108   2.395       .  S
Zr101       O109   2.379       .  S
Zr101       O110   2.378       .  S
Zr102       O121   2.438       .  S
Zr102       O114   2.434   1_545  S
Zr102       O115   2.436       .  S
Zr102       O108   2.397       .  S
Zr102       O109   2.387       .  S
Zr103       O105   2.434       .  S
Zr103       O127   2.437   1_545  S
Zr103       O129   2.427       .  S
Zr103       O107   2.396       .  S
Zr103       O110   2.386       .  S
Zr104       O130   2.435       .  S
Zr104       O131   2.436       .  S
Zr104       O106   2.437       .  S
Zr104       O107   2.393   1_565  S
Zr104       O108   2.386   1_565  S
O105        H142   0.990       .  S
O106        H137   0.990       .  S
O106        H151   0.990       .  S
O108        H134   0.967       .  S
O109       Zr119   2.370       .  S
O110       Zr119   2.373       .  S
O110        H135   0.965       .  S
C111        C477   1.480       .  S
C112        C444   1.487       .  S
C113        C434   1.480       .  S
O114        H150   0.990       .  S
O115        C117   1.286       .  A
O116        C117   1.284       .  A
C117        C537   1.482       .  S
O118       Zr119   2.439       .  S
O118        H147   0.990       .  S
Zr119       O122   2.436       .  S
Zr119       O123   2.441       .  S
Zr119       O124   2.433       .  S
O120        C125   1.281       .  A
O121        H138   0.990       .  S
O121        H153   0.990       .  S
O122        H139   0.990       .  S
O123        H143   0.990       .  S
O123        H152   0.990       .  S
O124        C125   1.284       .  A
C125        C467   1.478       .  S
O126        H145   0.990       .  S
O126        H149   0.990       .  S
O127        H141   0.990       .  S
O127        H148   0.990       .  S
O128        C132   1.286       .  A
O129        C132   1.284       .  A
O130        H140   0.990       .  S
O131        H144   0.990       .  S
C132        C454   1.480       .  S
C155        C156   1.398       .  A
C155        C160   1.418       .  A
C155        C504   1.482       .  S
C156        C157   1.393       .  A
C156        H175   1.086       .  S
C157        C158   1.410       .  A
C157        C457   1.477       .  S
C158        C159   1.421       .  A
C158        C165   1.404       .  A
C159        C160   1.421       .  A
C159        C164   1.419       .  A
C160        C161   1.407       .  A
C161        C162   1.398       .  A
C161        H171   1.082       .  S
C162        C163   1.405       .  A
C162        H172   1.083       .  S
C163        C164   1.422       .  A
C163        C170   1.417       .  A
C164        C167   1.420       .  A
C165        C166   1.391       .  A
C165        H173   1.083       .  S
C166        C167   1.405       .  A
C166        H174   1.083       .  S
C167        C168   1.409       .  A
C168        C169   1.395       .  A
C168        C424   1.474       .  S
C169        C170   1.395       .  A
C169        H176   1.086       .  S
C170        C417   1.481       .  S
Zr177       O178   2.438       .  S
Zr177       O179   2.416       .  S
Zr177       O180   2.436   1_655  S
Zr177       O183   2.420       .  S
Zr177       O185   2.376   1_656  S
Zr177       O186   2.383   1_556  S
Zr177       O187   2.396   1_655  S
Zr177       O188   2.398       .  S
O178        H234   0.990   1_655  S
O178        H242   0.990   1_655  S
O179        C199   1.282   1_556  A
O180        C201   1.286       .  A
O181       Zr191   2.439   1_556  S
O181        C200   1.286       .  A
O182       Zr190   2.434       .  S
O182        C201   1.285       .  A
O183        C200   1.284       .  A
O184       Zr192   2.423       .  S
O184        C199   1.282       .  A
O185       Zr190   2.388   1_554  S
O185       Zr192   2.376   1_455  S
O186       Zr191   2.389       .  S
O186       Zr192   2.375       .  S
O186        H221   0.965       .  S
O187       Zr190   2.392       .  S
O187       Zr207   2.396       .  S
O187        H224   0.967       .  S
O188       Zr191   2.391   1_556  S
O188       Zr207   2.392   1_655  S
Zr189       O214   2.442       .  S
Zr189       O208   2.423       .  S
Zr189       O216   2.435   1_455  S
Zr189       O204   2.431       .  S
Zr189       O195   2.393   1_455  S
Zr189       O196   2.399       .  S
Zr189       O197   2.379   1_554  S
Zr189       O198   2.383   1_454  S
Zr190       O209   2.435       .  S
Zr190       O202   2.435   1_556  S
Zr190       O203   2.429   1_556  S
Zr190       O196   2.398   1_556  S
Zr190       O197   2.385       .  S
Zr191       O193   2.436   1_554  S
Zr191       O215   2.437       .  S
Zr191       O217   2.426       .  S
Zr191       O195   2.394       .  S
Zr191       O198   2.385   1_554  S
Zr192       O218   2.434       .  S
Zr192       O219   2.435       .  S
Zr192       O194   2.437   1_655  S
Zr192       O195   2.392       .  S
Zr192       O196   2.394   1_655  S
O193        H230   0.990       .  S
O194        H225   0.990       .  S
O194        H239   0.990       .  S
O196        H222   0.967       .  S
O197       Zr207   2.375       .  S
O198       Zr207   2.375   1_655  S
O198        H223   0.965       .  S
C199        C377   1.488       .  S
C200        C527   1.481       .  S
C201        C414   1.490       .  S
O202        H238   0.990       .  S
O203        C205   1.284       .  A
O204        C205   1.286       .  A
C205        C404   1.481       .  S
O206       Zr207   2.439       .  S
O206        H235   0.990       .  S
Zr207       O210   2.436       .  S
Zr207       O211   2.439   1_455  S
Zr207       O212   2.423       .  S
O208        C213   1.284   1_554  A
O209        H226   0.990       .  S
O209        H241   0.990       .  S
O210        H227   0.991       .  S
O211        H231   0.990       .  S
O211        H240   0.990       .  S
O212        C213   1.283       .  A
C213        C384   1.479       .  S
O214        H233   0.990   1_455  S
O214        H237   0.990       .  S
O215        H229   0.991       .  S
O215        H236   0.989       .  S
O216        C220   1.286       .  A
O217        C220   1.284       .  A
O218        H228   0.990       .  S
O219        H232   0.990       .  S
C220        C394   1.479       .  S
Zr243       O244   2.440   1_655  S
Zr243       O245   2.419       .  S
Zr243       O246   2.421       .  S
Zr243       O249   2.423   1_655  S
Zr243       O251   2.382   1_554  S
Zr243       O252   2.379   1_654  S
Zr243       O253   2.399       .  S
Zr243       O254   2.395   1_655  S
O244        H300   0.991   1_455  S
O244        H308   0.990   1_455  S
O245        C265   1.282   1_554  A
O246        C267   1.282       .  A
O247       Zr257   2.440   1_554  S
O247        C266   1.287       .  A
O248       Zr256   2.439   1_565  S
O248        C267   1.286       .  A
O249        C266   1.284       .  A
O250       Zr258   2.424       .  S
O250        C265   1.283       .  A
O251       Zr256   2.393   1_566  S
O251       Zr258   2.377       .  S
O252       Zr257   2.380       .  S
O252       Zr258   2.373   1_455  S
O252        H287   0.965       .  S
O253       Zr256   2.400   1_565  S
O253       Zr273   2.390   1_665  S
O253        H290   0.967       .  S
O254       Zr257   2.394   1_554  S
O254       Zr273   2.393   1_565  S
Zr255       O280   2.442       .  S
Zr255       O274   2.420       .  S
Zr255       O282   2.422       .  S
Zr255       O270   2.428   1_455  S
Zr255       O261   2.393   1_545  S
Zr255       O262   2.394   1_455  S
Zr255       O263   2.376   1_456  S
Zr255       O264   2.382   1_556  S
Zr256       O275   2.436       .  S
Zr256       O268   2.435   1_544  S
Zr256       O269   2.444   1_554  S
Zr256       O262   2.396   1_554  S
Zr256       O263   2.383       .  S
Zr257       O259   2.434   1_566  S
Zr257       O281   2.437       .  S
Zr257       O283   2.430   1_565  S
Zr257       O261   2.394       .  S
Zr257       O264   2.389   1_566  S
Zr258       O284   2.436   1_655  S
Zr258       O285   2.436       .  S
Zr258       O260   2.436       .  S
Zr258       O261   2.394   1_655  S
Zr258       O262   2.393   1_565  S
O259        H296   0.990       .  S
O260        H291   0.990       .  S
O260        H305   0.990       .  S
O262        H288   0.967       .  S
O263       Zr273   2.375   1_655  S
O264       Zr273   2.373       .  S
O264        H289   0.964       .  S
C265        C387   1.479   1_655  S
C266        C367   1.487       .  S
C267        C354   1.475       .  S
O268        H304   0.990       .  S
O269        C271   1.287       .  A
O270        C271   1.284       .  A
C271        C517   1.485       .  S
O272       Zr273   2.439       .  S
O272        H301   0.990       .  S
Zr273       O276   2.437   1_455  S
Zr273       O277   2.440       .  S
Zr273       O278   2.418   1_455  S
O274        C279   1.283   1_456  A
O275        H292   0.990       .  S
O275        H307   0.990       .  S
O276        H293   0.990       .  S
O277        H297   0.990       .  S
O277        H306   0.990       .  S
O278        C279   1.281       .  A
C279        C374   1.487       .  S
O280        H299   0.990       .  S
O280        H303   0.990   1_455  S
O281        H295   0.990       .  S
O281        H302   0.990       .  S
O282        C286   1.284       .  A
O283        C286   1.284       .  A
O284        H294   0.990       .  S
O285        H298   0.990   1_655  S
C286        C427   1.478       .  S
C309        C310   1.397       .  A
C309        C314   1.413       .  A
C309        C447   1.479       .  S
C310        C311   1.396       .  A
C310        H329   1.086       .  S
C311        C312   1.413       .  A
C311        C494   1.479       .  S
C312        C313   1.421       .  A
C312        C319   1.406       .  A
C313        C314   1.421       .  A
C313        C318   1.419       .  A
C314        C315   1.405       .  A
C315        C316   1.394       .  A
C315        H325   1.083       .  S
C316        C317   1.405       .  A
C316        H326   1.083       .  S
C317        C318   1.421       .  A
C317        C324   1.412       .  A
C318        C321   1.420       .  A
C319        C320   1.395       .  A
C319        H327   1.083       .  S
C320        C321   1.406       .  A
C320        H328   1.083       .  S
C321        C322   1.413       .  A
C322        C323   1.397       .  A
C322        C407   1.477       .  S
C323        C324   1.396       .  A
C323        H330   1.086       .  S
C324        C364   1.480       .  S
C331        C332   1.395       .  A
C331        C336   1.412       .  A
C331        C437   1.476       .  S
C332        C333   1.395       .  A
C332        H351   1.086       .  S
C333        C334   1.408       .  A
C333        C487   1.470       .  S
C334        C335   1.418       .  A
C334        C341   1.405       .  A
C335        C336   1.420       .  A
C335        C340   1.416       .  A
C336        C337   1.405       .  A
C337        C338   1.394       .  A
C337        H347   1.083       .  S
C338        C339   1.406       .  A
C338        H348   1.083       .  S
C339        C340   1.419       .  A
C339        C346   1.412       .  A
C340        C343   1.419       .  A
C341        C342   1.391       .  A
C341        H349   1.083       .  S
C342        C343   1.405       .  A
C342        H350   1.083       .  S
C343        C344   1.409       .  A
C344        C345   1.395       .  A
C344        C397   1.474       .  S
C345        C346   1.396       .  A
C345        H352   1.086       .  S
C346        C357   1.476       .  S
C353        C354   1.405       .  A
C353        C358   1.398       .  A
C353        F360   1.358       .  S
C354        C355   1.409       .  A
C355        C356   1.399       .  A
C355        F362   1.358       .  S
C356        C357   1.402       .  A
C356        F361   1.358       .  S
C357        C358   1.403       .  A
C358        F359   1.358       .  S
C363        C364   1.400       .  A
C363        C368   1.399       .  A
C363        F370   1.357       .  S
C364        C365   1.403       .  A
C365        C366   1.400       .  A
C365        F372   1.358       .  S
C366        C367   1.412       .  A
C366        F371   1.358       .  S
C367        C368   1.411       .  A
C368        F369   1.357       .  S
C373        C374   1.412       .  A
C373        C378   1.397       .  A
C373        F380   1.358       .  S
C374        C375   1.409   1_554  A
C375        C376   1.393       .  A
C375        F382   1.358       .  S
C376        C377   1.411   1_556  A
C376        F381   1.358       .  S
C377        C378   1.411       .  A
C378        F379   1.358       .  S
C383        C384   1.409   1_655  A
C383        C388   1.396       .  A
C383        F390   1.358       .  S
C384        C385   1.407   1_556  A
C385        C386   1.397       .  A
C385        F392   1.358       .  S
C386        C387   1.409   1_554  A
C386        F391   1.359       .  S
C387        C388   1.407   1_455  A
C388        F389   1.358       .  S
C393        C394   1.409       .  A
C393        C398   1.397       .  A
C393        F400   1.358       .  S
C394        C395   1.409       .  A
C395        C396   1.398       .  A
C395        F402   1.358       .  S
C396        C397   1.402       .  A
C396        F401   1.358       .  S
C397        C398   1.400       .  A
C398        F399   1.358       .  S
C403        C404   1.408       .  A
C403        C408   1.395       .  A
C403        F410   1.357       .  S
C404        C405   1.411       .  A
C405        C406   1.402       .  A
C405        F412   1.358       .  S
C406        C407   1.404       .  A
C406        F411   1.358       .  S
C407        C408   1.400       .  A
C408        F409   1.358       .  S
C413        C414   1.411       .  A
C413        C418   1.397       .  A
C413        F420   1.357       .  S
C414        C415   1.413       .  A
C415        C416   1.404       .  A
C415        F422   1.358       .  S
C416        C417   1.404       .  A
C416        F421   1.358       .  S
C417        C418   1.401       .  A
C418        F419   1.358       .  S
C423        C424   1.401       .  A
C423        C428   1.394       .  A
C423        F430   1.358       .  S
C424        C425   1.401       .  A
C425        C426   1.399       .  A
C425        F432   1.357       .  S
C426        C427   1.410       .  A
C426        F431   1.358       .  S
C427        C428   1.409       .  A
C428        F429   1.358       .  S
C433        C434   1.410       .  A
C433        C438   1.399       .  A
C433        F440   1.358       .  S
C434        C435   1.408       .  A
C435        C436   1.399       .  A
C435        F442   1.358       .  S
C436        C437   1.402       .  A
C436        F441   1.358       .  S
C437        C438   1.402       .  A
C438        F439   1.358       .  S
C443        C444   1.411       .  A
C443        C448   1.396       .  A
C443        F450   1.358       .  S
C444        C445   1.413       .  A
C445        C446   1.401       .  A
C445        F452   1.358       .  S
C446        C447   1.403       .  A
C446        F451   1.358       .  S
C447        C448   1.401       .  A
C448        F449   1.358       .  S
C453        C454   1.408       .  A
C453        C458   1.396       .  A
C453        F460   1.358       .  S
C454        C455   1.411       .  A
C455        C456   1.400       .  A
C455        F462   1.358       .  S
C456        C457   1.402       .  A
C456        F461   1.358       .  S
C457        C458   1.401       .  A
C458        F459   1.358       .  S
C463        C464   1.406       .  A
C463        C468   1.396       .  A
C463        F470   1.358       .  S
C464        C465   1.409       .  A
C465        C466   1.398       .  A
C465        F472   1.358       .  S
C466        C467   1.407       .  A
C466        F471   1.358       .  S
C467        C468   1.408       .  A
C468        F469   1.358       .  S
C473        C474   1.409       .  A
C473        C478   1.394       .  A
C473        F480   1.358       .  S
C474        C475   1.411       .  A
C475        C476   1.396       .  A
C475        F482   1.358       .  S
C476        C477   1.407       .  A
C476        F481   1.358       .  S
C477        C478   1.410       .  A
C478        F479   1.358       .  S
C483        C484   1.410       .  A
C483        C488   1.398       .  A
C483        F490   1.358       .  S
C484        C485   1.409       .  A
C485        C486   1.393       .  A
C485        F492   1.358       .  S
C486        C487   1.399       .  A
C486        F491   1.358       .  S
C487        C488   1.401       .  A
C488        F489   1.358       .  S
C493        C494   1.403       .  A
C493        C498   1.402       .  A
C493        F500   1.358       .  S
C494        C495   1.401       .  A
C495        C496   1.398       .  A
C495        F502   1.358       .  S
C496        C497   1.410       .  A
C496        F501   1.358       .  S
C497        C498   1.411       .  A
C498        F499   1.358       .  S
C503        C504   1.405       .  A
C503        C508   1.399       .  A
C503        F510   1.357       .  S
C504        C505   1.407       .  A
C505        C506   1.397       .  A
C505        F512   1.358       .  S
C506        C507   1.405       .  A
C506        F511   1.359       .  S
C507        C508   1.404       .  A
C508        F509   1.358       .  S
C513        C514   1.404       .  A
C513        C518   1.402       .  A
C513        F520   1.358       .  S
C514        C515   1.403       .  A
C515        C516   1.400       .  A
C515        F522   1.358       .  S
C516        C517   1.410       .  A
C516        F521   1.358       .  S
C517        C518   1.409       .  A
C518        F519   1.358       .  S
C523        C524   1.399       .  A
C523        C528   1.395       .  A
C523        F530   1.358       .  S
C524        C525   1.402       .  A
C525        C526   1.400       .  A
C525        F532   1.358       .  S
C526        C527   1.410       .  A
C526        F531   1.358       .  S
C527        C528   1.410       .  A
C528        F529   1.358       .  S
C533        C534   1.401       .  A
C533        C538   1.397       .  A
C533        F540   1.358       .  S
C534        C535   1.401       .  A
C535        C536   1.398       .  A
C535        F542   1.358       .  S
C536        C537   1.410       .  A
C536        F541   1.358       .  S
C537        C538   1.411       .  A
C538        F539   1.358       .  S
C543        C544   1.402       .  A
C543        C548   1.397       .  A
C543        F550   1.358       .  S
C544        C545   1.403       .  A
C545        C546   1.402       .  A
C545        F552   1.358       .  S
C546        C547   1.413       .  A
C546        F551   1.358       .  S
C547        C548   1.410       .  A
C548        F549   1.358       .  S
