geometry optimzed in LAMMPS
_audit_creation_date              2020-11-30 
_audit_creation_method            'lammps2cif' 
_symmetry_space_group_name_H-M    'P1' 
_symmetry_Int_Tables_number       1 
_symmetry_cell_setting            triclinic 
loop_ 
_symmetry_equiv_pos_as_xyz 
  x,y,z 
_cell_length_a                    42.9910955 
_cell_length_b                    43.131541192980215 
_cell_length_c                    43.09509379980589 
_cell_angle_alpha                 90.22821427464966 
_cell_angle_beta                  90.23668978766702 
_cell_angle_gamma                 90.81254262273562 
loop_ 
_atom_site_label 
_atom_site_type_symbol 
_atom_site_fract_x 
_atom_site_fract_y 
_atom_site_fract_z 
_atom_site_charge 
O1          O  0.52730748  0.04599587  0.83495251    -0.86000
O2          O  0.52383819  0.04755529  0.65943981    -0.86100
O3          O  0.58998965  0.03353836  0.74269511    -0.87800
O4          O  0.51845046  0.10524129  0.75233967    -0.86600
O5          O  0.46494850  0.10575899  0.75022268    -0.86200
O6          O  0.58905243  0.98054858  0.74447360    -0.87500
O7          O  0.55312568  0.07114807  0.69737120    -0.86000
O8          O  0.55699478  0.06765654  0.79673385    -0.85600
Zr9        Zr  0.53591060  0.05169358  0.74690729     2.84300
O10         O  0.49084390  0.05261908  0.71571033    -1.07600
O11         O  0.53596641  0.00808078  0.77872310    -1.08300
C12         C  0.54925767  0.06435192  0.82539161     1.07100
C13         C  0.54507750  0.06708196  0.66882979     1.07100
C14         C  0.60354841  0.00684664  0.74198459     1.10100
C15         C  0.49193230  0.11901738  0.75332847     1.07800
H16         H  0.55249100  0.00864098  0.70158862     0.33400
O17         O  0.53432202  0.00831541  0.71467393    -1.28500
H18         H  0.49209380  0.06993749  0.79099322     0.33100
O19         O  0.49147561  0.05176459  0.77792077    -1.30200
O20         O  0.45453916  0.96999740  0.65883857    -0.86000
O21         O  0.45345038  0.97488646  0.83604759    -0.87500
O22         O  0.55205901  0.94712468  0.69531845    -0.86000
O23         O  0.42797660  0.07182912  0.69722731    -0.86100
O24         O  0.43028801  0.07278553  0.79724869    -0.85800
O25         O  0.55273270  0.94676371  0.79591285    -0.85600
O26         O  0.46416093  0.91028821  0.75195397    -0.86000
O27         O  0.39305261  0.97927876  0.74470516    -0.85400
O28         O  0.51720879  0.91055414  0.75135716    -0.86500
O29         O  0.39238297  0.03242311  0.74484260    -0.85700
O30         O  0.52734384  0.97542263  0.65758431    -0.86100
O31         O  0.52844704  0.97273644  0.83479822    -0.85800
O32         O  0.45748258  0.04779040  0.83497859    -0.85400
O33         O  0.45326815  0.04510885  0.65885584    -0.85900
O34         O  0.43096520  0.94198794  0.69766045    -0.86100
O35         O  0.42561624  0.94930605  0.79787968    -0.87500
Zr36       Zr  0.48949729  0.00866273  0.68347822     2.83100
Zr37       Zr  0.49144639  0.00880921  0.81043266     2.83500
Zr38       Zr  0.53443625  0.96442391  0.74619979     2.84100
Zr39       Zr  0.44635682  0.05207038  0.74708886     2.83400
Zr40       Zr  0.44675404  0.96380190  0.74749204     2.84200
O41         O  0.44650807  0.00822124  0.77908878    -1.08100
O42         O  0.48999901  0.96393522  0.71473298    -1.07600
C43         C  0.43643280  0.94792737  0.66884517     1.07100
C44         C  0.43171379  0.95606074  0.82650758     1.09700
C45         C  0.54717559  0.95510263  0.66686596     1.07300
C46         C  0.43377139  0.06572814  0.66844400     1.07600
C47         C  0.43798332  0.06871560  0.82594147     1.07200
C48         C  0.54791936  0.95224341  0.82481769     1.06800
C49         C  0.49059850  0.89648852  0.75373896     1.07200
C50         C  0.37891223  0.00536321  0.74337103     1.06700
H51         H  0.49076358  0.94661343  0.79214221     0.33400
O52         O  0.49097483  0.96454545  0.77883324    -1.29200
H53         H  0.42742666  0.00723326  0.70251640     0.33400
O54         O  0.44576923  0.00772991  0.71552869    -1.30500
C55         C  0.64651730  0.20308544  0.49959574    -0.02000
O56         O  0.55366773  0.07835976  0.29724221    -0.86000
O57         O  0.43591058  0.94578251  0.28950031    -0.86100
O58         O  0.45350942  0.04588192  0.32974990    -0.87800
O59         O  0.52853352  0.97420255  0.33157720    -0.86600
O60         O  0.55711639  0.95032194  0.29399197    -0.86200
O61         O  0.43123689  0.07416028  0.29130066    -0.87500
O62         O  0.45727982  0.97495924  0.32868458    -0.86000
O63         O  0.52715300  0.05037419  0.33427889    -0.85600
Zr64       Zr  0.49400114  0.01256216  0.30668527     2.84300
O65         O  0.49594185  0.96917559  0.27372992    -1.07600
O66         O  0.49458119  0.05742277  0.27586137    -1.08300
C67         C  0.54646561  0.07189849  0.32557160     1.07100
C68         C  0.43963744  0.95255800  0.31851383     1.07100
C69         C  0.43361549  0.06604898  0.31983892     1.10100
C70         C  0.54918612  0.95436241  0.32253950     1.07800
H71         H  0.43309018  0.01132603  0.28544742     0.33400
O72         O  0.45157068  0.01228607  0.27285705    -1.28500
H73         H  0.55721949  0.01495364  0.29098197     0.33100
O74         O  0.53958069  0.01453553  0.27705720    -1.30200
O75         O  0.43571063  0.95236231  0.18878084    -0.86000
O76         O  0.56035885  0.07568645  0.19546650    -0.87500
O77         O  0.39752848  0.03838429  0.24577923    -0.86000
O78         O  0.52417078  0.91718876  0.23763662    -0.86100
O79         O  0.59511590  0.99129800  0.25116322    -0.85800
O80         O  0.47023850  0.11132292  0.24197043    -0.85600
O81         O  0.45882062  0.04814701  0.15488461    -0.86000
O82         O  0.53741667  0.98298587  0.15569479    -0.85400
O83         O  0.43168482  0.07385041  0.19265590    -0.86500
O84         O  0.56470196  0.95875359  0.19427052    -0.85700
O85         O  0.39834155  0.98506605  0.24549416    -0.86100
O86         O  0.52344283  0.11187596  0.24556957    -0.85800
O87         O  0.59380500  0.04424797  0.24967139    -0.85400
O88         O  0.47067097  0.91598544  0.23583873    -0.85900
O89         O  0.46666155  0.97622023  0.15295483    -0.86100
O90         O  0.53244838  0.05218214  0.15614675    -0.87500
Zr91       Zr  0.45251679  0.96882338  0.24057998     2.83100
Zr92       Zr  0.53976501  0.05877537  0.24577874     2.83500
Zr93       Zr  0.45158267  0.05707218  0.24237562     2.84100
Zr94       Zr  0.54160488  0.97130731  0.24417284     2.83400
Zr95       Zr  0.49768654  0.01511162  0.18036033     2.84200
O96         O  0.54148419  0.01561420  0.21319388    -1.08100
O97         O  0.45188539  0.01343868  0.20974436    -1.07600
C98         C  0.44519173  0.95658496  0.16065448     1.07100
C99         C  0.55376384  0.07084309  0.16648475     1.09700
C100        C  0.38433084  0.01132146  0.24785882     1.07300
C101        C  0.49752366  0.90313074  0.23452638     1.07600
C102        C  0.60832404  0.01849374  0.25247467     1.07200
C103        C  0.49710170  0.12536585  0.24284372     1.06800
C104        C  0.43770177  0.06724962  0.16413789     1.07200
C105        C  0.55913927  0.96487862  0.16547360     1.06700
H106        H  0.49681068  0.07725158  0.19971886     0.33400
O107        O  0.49665579  0.05906216  0.21230166    -1.29200
H108        H  0.49918317  0.95304717  0.19750367     0.33400
O109        O  0.49813512  0.97075935  0.21114905    -1.30500
C110        C  0.29890665  0.85699936  0.99913542    -0.02000
C111        C  0.67806101  0.85175533  0.99380322    -0.02000
C112        C  0.64799992  0.82652714  0.49995850    -0.02000
C113        C  0.30274238  0.16831225  0.99621634    -0.02000
C114        C  0.68805864  0.16112732  0.99021857    -0.02000
C115        C  0.34175980  0.19818613  0.49317188    -0.02000
C116        C  0.34278827  0.81779255  0.48983786    -0.02000
O117        O  0.89456784  0.76367222  0.47010073    -0.86000
O118        O  0.02005473  0.75811754  0.59353393    -0.86100
O119        O  0.93396430  0.70914341  0.55852475    -0.87800
O120        O  0.93126967  0.81115025  0.56130143    -0.86600
O121        O  0.95552007  0.85047618  0.53428803    -0.86200
O122        O  0.96028665  0.67284361  0.53048883    -0.87500
O123        O  0.96657279  0.75757044  0.59458728    -0.86000
O124        O  0.89473006  0.76048723  0.52284595    -0.85600
Zr125      Zr  0.94889043  0.76108172  0.54059909     2.84300
O126        O  0.99239726  0.79448914  0.54064754    -1.07600
O127        O  0.94909939  0.72919988  0.49615045    -1.08300
C128        C  0.88044668  0.76330849  0.49656644     1.07100
C129        C  0.99359751  0.75557694  0.60767057     1.07100
C130        C  0.94084049  0.68078015  0.55174657     1.10100
C131        C  0.93679390  0.84018515  0.55554403     1.07800
H132        H  0.99511077  0.71818377  0.55726457     0.33400
O133        O  0.99431956  0.73161488  0.53942905    -1.28500
H134        H  0.92907357  0.80504139  0.49630138     0.33100
O135        O  0.94754667  0.79257184  0.49625880    -1.30200
O136        O  0.09198690  0.77050131  0.52284309    -0.86000
O137        O  0.96653223  0.75652399  0.39779228    -0.87500
O138        O  0.03270295  0.67721309  0.53078318    -0.86000
O139        O  0.02804707  0.85185599  0.53307004    -0.86100
O140        O  0.95565880  0.84799821  0.45656438    -0.85800
O141        O  0.95957454  0.67302202  0.45910169    -0.85600
O142        O  0.05842553  0.71534486  0.43570430    -0.86000
O143        O  0.05040207  0.81717305  0.43149073    -0.85400
O144        O  0.03117301  0.67593496  0.45946602    -0.86500
O145        O  0.02274577  0.85328004  0.45808453    -0.85700
O146        O  0.06089015  0.71616618  0.55416314    -0.86100
O147        O  0.92915835  0.70932916  0.43584281    -0.85800
O148        O  0.93154985  0.80842416  0.42920548    -0.85400
O149        O  0.05412872  0.81452273  0.56022181    -0.85900
O150        O  0.09171750  0.77166231  0.46959554    -0.86100
O151        O  0.01962292  0.76186892  0.39779871    -0.87500
Zr152      Zr  0.03774587  0.76483973  0.53967607     2.83100
Zr153      Zr  0.94841343  0.76043229  0.45187071     2.83500
Zr154      Zr  0.99497496  0.70026009  0.49513046     2.84100
Zr155      Zr  0.99079109  0.82631156  0.49653130     2.83400
Zr156      Zr  0.03751765  0.76552372  0.45161568     2.84200
O157        O  0.99166361  0.79404260  0.45257233    -1.08100
O158        O  0.03874627  0.73351985  0.49528074    -1.07600
C159        C  0.10570519  0.77319196  0.49629993     1.07100
C160        C  0.99323364  0.75731869  0.38387274     1.09700
C161        C  0.05453637  0.68730794  0.54916171     1.07300
C162        C  0.04785618  0.84292018  0.55402931     1.07600
C163        C  0.93741633  0.83724770  0.43478700     1.07200
C164        C  0.93734614  0.68102190  0.44056111     1.06800
C165        C  0.05238157  0.68633415  0.44093467     1.07200
C166        C  0.04221534  0.84547742  0.43674389     1.06700
H167        H  0.99455152  0.71845045  0.43318997     0.33400
O168        O  0.99415193  0.73171316  0.45127451    -1.29200
H169        H  0.05411210  0.81107754  0.49595292     0.33400
O170        O  0.03639969  0.79706374  0.49597321    -1.30500
O171        O  0.89728712  0.25891628  0.47505687    -0.86000
O172        O  0.02448520  0.26893215  0.59741085    -0.86100
O173        O  0.93670509  0.21045911  0.56268537    -0.87800
O174        O  0.93110020  0.31040989  0.56164777    -0.86600
O175        O  0.95907706  0.34940999  0.53827770    -0.86200
O176        O  0.96293038  0.17344423  0.53511995    -0.87500
O177        O  0.97112389  0.26484594  0.59823990    -0.86000
O178        O  0.89825722  0.25491198  0.52776064    -0.85600
Zr179      Zr  0.95248964  0.26159041  0.54456826     2.84300
O180        O  0.99605040  0.29508076  0.54502936    -1.07600
O181        O  0.95205565  0.23082496  0.49982605    -1.08300
C182        C  0.88363348  0.25481909  0.50145909     1.07100
C183        C  0.99797912  0.26831793  0.61155952     1.07100
C184        C  0.94326153  0.18209953  0.55602202     1.10100
C185        C  0.93754638  0.33925423  0.55667695     1.07800
H186        H  0.99863157  0.21974562  0.56210223     0.33400
O187        O  0.99793439  0.23251581  0.54376973    -1.28500
H188        H  0.93196304  0.30615131  0.50141137     0.33100
O189        O  0.95071101  0.29408615  0.50115880    -1.30200
O190        O  0.09514244  0.26533466  0.52550648    -0.86000
O191        O  0.96685463  0.26766649  0.40225587    -0.87500
O192        O  0.03361204  0.17746519  0.53486115    -0.86000
O193        O  0.03297326  0.35393848  0.53441532    -0.86100
O194        O  0.95930049  0.35197314  0.46566402    -0.85800
O195        O  0.96208046  0.17650035  0.46110708    -0.85600
O196        O  0.05836062  0.21539947  0.43529659    -0.86000
O197        O  0.05603599  0.31698666  0.43646825    -0.85400
O198        O  0.03325854  0.17698903  0.46279580    -0.86500
O199        O  0.02685962  0.35261093  0.46285007    -0.85700
O200        O  0.06100466  0.21612354  0.55952149    -0.86100
O201        O  0.93379089  0.21370507  0.43632893    -0.85800
O202        O  0.93229102  0.31350016  0.43985754    -0.85400
O203        O  0.06126207  0.31726953  0.55976012    -0.85900
O204        O  0.09472273  0.26275600  0.47265941    -0.86100
O205        O  0.02008281  0.26940994  0.40101020    -0.87500
Zr206      Zr  0.04146018  0.26610054  0.54326827     2.83100
Zr207      Zr  0.95104228  0.26334004  0.45649883     2.83500
Zr208      Zr  0.99725544  0.20136634  0.49889407     2.84100
Zr209      Zr  0.99503759  0.32653640  0.50115723     2.83400
Zr210      Zr  0.04024885  0.26558601  0.45451590     2.84200
O211        O  0.99515060  0.29534274  0.45670917    -1.08100
O212        O  0.04091092  0.23452736  0.49883581    -1.07600
C213        C  0.10912097  0.26276488  0.49920070     1.07100
C214        C  0.99297876  0.27021082  0.38766661     1.09700
C215        C  0.05457049  0.18725403  0.55426629     1.07300
C216        C  0.05480843  0.34578214  0.55336189     1.07600
C217        C  0.93870272  0.34222554  0.44588666     1.07200
C218        C  0.94152407  0.18538776  0.44108804     1.06800
C219        C  0.05267075  0.18663784  0.44199301     1.07200
C220        C  0.04725763  0.34492515  0.44247910     1.06700
H221        H  0.99592248  0.22073801  0.43605925     0.33400
O222        O  0.99605227  0.23316770  0.45474974    -1.29200
H223        H  0.05879387  0.31066170  0.49867699     0.33400
O224        O  0.04061337  0.29725881  0.49905542    -1.30500
C225        C  0.80542200  0.51148780  0.65115180    -0.02000
C226        C  0.18786749  0.52221772  0.65586703    -0.02000
C227        C  0.84082851  0.01177206  0.30996419    -0.02000
C228        C  0.83874934  0.01436976  0.68761778    -0.02000
C229        C  0.80419732  0.50657098  0.34068694    -0.02000
C230        C  0.18519646  0.51150806  0.34935178    -0.02000
C231        C  0.15260714  0.01795755  0.30763737    -0.02000
C232        C  0.14687730  0.01661606  0.68896559    -0.02000
O233        O  0.73548782  0.60536474  0.97109687    -0.86000
O234        O  0.74275881  0.47880255  0.09252923    -0.86100
O235        O  0.69138320  0.56702568  0.06139353    -0.87800
O236        O  0.79219013  0.56866068  0.05943280    -0.86600
O237        O  0.82924594  0.54143579  0.03268973    -0.86200
O238        O  0.65279263  0.54406697  0.03217464    -0.87500
O239        O  0.74595334  0.53170286  0.09449542    -0.86000
O240        O  0.73640662  0.60490934  0.02443005    -0.85600
Zr241      Zr  0.74164584  0.55090277  0.04117870     2.84300
O242        O  0.77210703  0.50634763  0.03973604    -1.07600
O243        O  0.71094871  0.55155432  0.99652244    -1.08300
C244        C  0.73341192  0.61864397  0.99796234     1.07100
C245        C  0.74589889  0.50466696  0.10744573     1.07100
C246        C  0.66247483  0.56238669  0.05409602     1.10100
C247        C  0.82048954  0.56156183  0.05312324     1.07800
H248        H  0.69640688  0.50683134  0.05917829     0.33400
O249        O  0.70891560  0.50718852  0.04063163    -1.28500
H250        H  0.78660811  0.56996505  0.99743373     0.33100
O251        O  0.77345161  0.55162492  0.99688231    -1.30200
O252        O  0.73300760  0.40955243  0.02095343    -0.86000
O253        O  0.74808086  0.53409389  0.89850445    -0.87500
O254        O  0.65160522  0.47338810  0.03270245    -0.86000
O255        O  0.82708303  0.46895823  0.03117779    -0.86100
O256        O  0.83051673  0.54234814  0.96024917    -0.85800
O257        O  0.65497183  0.54808276  0.96323836    -0.85600
O258        O  0.68627506  0.44860036  0.93054617    -0.86000
O259        O  0.78853719  0.44168766  0.93518175    -0.85400
O260        O  0.64993354  0.47428738  0.95965995    -0.86500
O261        O  0.82728903  0.47002104  0.95937613    -0.85700
O262        O  0.68925941  0.44494206  0.05634465    -0.86100
O263        O  0.69251593  0.57057352  0.93292025    -0.85800
O264        O  0.79373671  0.57272787  0.93786639    -0.85400
O265        O  0.78810261  0.44164807  0.05535470    -0.85900
O266        O  0.72826941  0.41006212  0.96830701    -0.86100
O267        O  0.74418736  0.48087588  0.89685744    -0.87500
Zr268      Zr  0.73932306  0.46282713  0.03835346     2.83100
Zr269      Zr  0.74221920  0.55220951  0.95221760     2.83500
Zr270      Zr  0.67760931  0.50845102  0.99601739     2.84100
Zr271      Zr  0.80342601  0.50637335  0.99551166     2.83400
Zr272      Zr  0.73822727  0.46322060  0.95027008     2.84200
O273        O  0.77140928  0.50698702  0.95148651    -1.08100
O274        O  0.70727315  0.46361757  0.99464467    -1.07600
C275        C  0.72741140  0.39599857  0.99479286     1.07100
C276        C  0.74850369  0.50766023  0.88413073     1.09700
C277        C  0.66075748  0.45259901  0.05217475     1.07300
C278        C  0.81696114  0.44780471  0.05006035     1.07600
C279        C  0.82238790  0.56497645  0.94240667     1.07200
C280        C  0.66403359  0.56689449  0.94174310     1.06800
C281        C  0.65796534  0.45521670  0.93803434     1.07200
C282        C  0.81753447  0.44818572  0.94092142     1.06700
H283        H  0.69584660  0.50937138  0.93264390     0.33400
O284        O  0.70870177  0.50862062  0.95105574    -1.29200
H285        H  0.78245466  0.44342329  0.99427537     0.33400
O286        O  0.77054016  0.46222809  0.99426011    -1.30500
O287        O  0.24876467  0.60751883  0.97473627    -0.86000
O288        O  0.23978779  0.48936693  0.10230683    -0.86100
O289        O  0.19876278  0.57912859  0.06308888    -0.87800
O290        O  0.30122687  0.56977448  0.06477904    -0.86600
O291        O  0.33647303  0.54474379  0.03447299    -0.86200
O292        O  0.15817477  0.55108364  0.04135930    -0.87500
O293        O  0.24587621  0.54217842  0.10127153    -0.86000
O294        O  0.25427982  0.60929124  0.02754084    -0.85600
Zr295      Zr  0.24801590  0.55670656  0.04680913     2.84300
O296        O  0.27677297  0.51131712  0.04735430    -1.07600
O297        O  0.21467811  0.55637152  0.00351293    -1.08300
C298        C  0.25336280  0.62218768  0.00058319     1.07100
C299        C  0.24153198  0.51631079  0.11570248     1.07100
C300        C  0.16952928  0.57294921  0.05884338     1.10100
C301        C  0.32949189  0.56353453  0.05657832     1.07800
H302        H  0.20046508  0.51506628  0.06727087     0.33400
O303        O  0.21328854  0.51409242  0.04891463    -1.28500
H304        H  0.29182037  0.57170240  0.00058195     0.33100
O305        O  0.27772353  0.55412172  0.00156589    -1.30200
O306        O  0.24630498  0.41429480  0.03229248    -0.86000
O307        O  0.24046637  0.53407013  0.90462213    -0.87500
O308        O  0.15505443  0.47491721  0.03955410    -0.86000
O309        O  0.32969118  0.47630853  0.04347068    -0.86100
O310        O  0.33221773  0.54219735  0.96332071    -0.85800
O311        O  0.15632149  0.55013417  0.96948533    -0.85600
O312        O  0.18781910  0.44814676  0.94752444    -0.86000
O313        O  0.29008160  0.44952538  0.93894443    -0.85400
O314        O  0.15182313  0.47907057  0.97012075    -0.86500
O315        O  0.32980008  0.47074889  0.96780147    -0.85700
O316        O  0.19294742  0.44816473  0.06545557    -0.86100
O317        O  0.19502372  0.57339534  0.94099150    -0.85800
O318        O  0.29448146  0.56934449  0.93808724    -0.85400
O319        O  0.29065166  0.45310896  0.07177965    -0.85900
O320        O  0.24467014  0.41304832  0.97892741    -0.86100
O321        O  0.23594889  0.48096132  0.90593650    -0.87500
Zr322      Zr  0.24250369  0.46878271  0.04904472     2.83100
Zr323      Zr  0.24447596  0.55347744  0.95830644     2.83500
Zr324      Zr  0.18049118  0.51342732  0.00544142     2.84100
Zr325      Zr  0.30690139  0.50887742  0.00228271     2.83400
Zr326      Zr  0.24046328  0.46600542  0.96055233     2.84200
O327        O  0.27431495  0.50871164  0.95844106    -1.08100
O328        O  0.20997537  0.46809970  0.00547458    -1.07600
C329        C  0.24748978  0.40015466  0.00573241     1.07100
C330        C  0.23663506  0.50720198  0.89150769     1.09700
C331        C  0.16444582  0.45372649  0.05858379     1.07300
C332        C  0.31936459  0.45880927  0.06574388     1.07600
C333        C  0.32305262  0.56226133  0.94302321     1.07200
C334        C  0.16626069  0.56907754  0.94833455     1.06800
C335        C  0.15944834  0.45655984  0.95194546     1.07200
C336        C  0.31923528  0.45304667  0.94580722     1.06700
H337        H  0.19706798  0.51080876  0.94244230     0.33400
O338        O  0.21061817  0.51086473  0.96032889    -1.29200
H339        H  0.28609483  0.44796381  0.00469385     0.33400
O340        O  0.27316112  0.46626833  0.00426583    -1.30500
C341        C  0.99829376  0.69742992  0.84023676    -0.02000
C342        C  0.99351803  0.31752306  0.84734402    -0.02000
C343        C  0.49489233  0.66197741  0.80848321    -0.02000
C344        C  0.50071269  0.66931512  0.18957535    -0.02000
C345        C  0.98933411  0.31909391  0.15092989    -0.02000
C346        C  0.99005971  0.69547330  0.15099611    -0.02000
C347        C  0.48246396  0.35215353  0.80625842    -0.02000
C348        C  0.49147981  0.35575126  0.18801605    -0.02000
O349        O  0.55721190  0.44314409  0.53928501    -0.86000
O350        O  0.46576570  0.49722775  0.40164250    -0.86100
O351        O  0.48667905  0.41370598  0.46764834    -0.87800
O352        O  0.56746765  0.47230708  0.43523125    -0.86600
O353        O  0.57276142  0.52483655  0.43450840    -0.86200
O354        O  0.44470046  0.42512008  0.49758084    -0.87500
O355        O  0.49880216  0.45682084  0.41095414    -0.86000
O356        O  0.55065172  0.42656060  0.48886795    -0.85600
Zr357      Zr  0.51765851  0.46259669  0.46331049     2.84300
O358        O  0.51323696  0.51331442  0.44520292    -1.07600
O359        O  0.50013846  0.46072782  0.51481985    -1.08300
C360        C  0.56060571  0.42332208  0.51673227     1.07100
C361        C  0.48030357  0.47241881  0.39369675     1.07100
C362        C  0.46086453  0.40618756  0.48152085     1.10100
C363        C  0.58202216  0.49774622  0.42748531     1.07800
H364        H  0.45331989  0.46518635  0.45311835     0.33400
O365        O  0.46600156  0.47871669  0.46599590    -1.28500
H366        H  0.57014023  0.48922753  0.49309897     0.33100
O367        O  0.54877103  0.49577147  0.49404867    -1.30200
O368        O  0.43162461  0.57737432  0.45396972    -0.86000
O369        O  0.53009999  0.53016839  0.59028717    -0.87500
O370        O  0.40202126  0.47423776  0.48313924    -0.86000
O371        O  0.53512587  0.57565318  0.42682715    -0.86100
O372        O  0.59213352  0.54451004  0.50658241    -0.85800
O373        O  0.45775092  0.45125074  0.56840765    -0.85600
O374        O  0.42628276  0.55232217  0.55839005    -0.86000
O375        O  0.50723134  0.60881471  0.52524780    -0.85400
O376        O  0.40959618  0.50304447  0.54673969    -0.86500
O377        O  0.54779368  0.59952918  0.49242517    -0.85700
O378        O  0.41010362  0.50995110  0.44488093    -0.86100
O379        O  0.50762161  0.46222063  0.58488793    -0.85800
O380        O  0.58330219  0.51335119  0.54885920    -0.85400
O381        O  0.48660870  0.56113715  0.41005524    -0.85900
O382        O  0.43944068  0.59527689  0.50369644    -0.86100
O383        O  0.49416387  0.56773797  0.58058020    -0.87500
Zr384      Zr  0.46195169  0.52952848  0.44828108     2.83100
Zr385      Zr  0.53092702  0.49397884  0.54542245     2.83500
Zr386      Zr  0.44854942  0.47696544  0.51724125     2.84100
Zr387      Zr  0.54356102  0.54667587  0.47558822     2.83400
Zr388      Zr  0.47497927  0.56088713  0.52906157     2.84200
O389        O  0.52662321  0.54470615  0.52687121    -1.08100
O390        O  0.44391399  0.52762601  0.49904485    -1.07600
C391        C  0.42747604  0.59699595  0.47637982     1.07100
C392        C  0.51478163  0.55489100  0.59764618     1.09700
C393        C  0.39376405  0.48886246  0.45819535     1.07300
C394        C  0.51237624  0.57610995  0.40693539     1.07600
C395        C  0.60046241  0.53129819  0.53224603     1.07200
C396        C  0.48064075  0.44954815  0.58826436     1.06800
C397        C  0.40654416  0.52935809  0.56037397     1.07200
C398        C  0.53240141  0.61714505  0.51071580     1.06700
H399        H  0.47190126  0.50988627  0.56917023     0.33400
O400        O  0.47912795  0.51024372  0.54799153    -1.29200
H401        H  0.49091425  0.58429234  0.47004121     0.33400
O402        O  0.49232797  0.56346438  0.47793870    -1.30500
O403        O  0.05904065  0.94427813  0.04269862    -0.86000
O404        O  0.00709618  0.03528674  0.90385340    -0.86100
O405        O  0.03227098  0.93445678  0.93751530    -0.87800
O406        O  0.09101147  0.01537898  0.97182531    -0.86600
O407        O  0.08167823  0.05711037  0.00364066    -0.86200
O408        O  0.98075381  0.92446946  0.94366256    -0.87500
O409        O  0.04644837  0.00105667  0.91360502    -0.86000
O410        O  0.07599641  0.94883986  0.99245717    -0.85600
Zr411      Zr  0.04181345  0.98422396  0.96637340     2.84300
O412        O  0.02624497  0.03634300  0.96786472    -1.07600
O413        O  0.00748573  0.95468115  0.99662774    -1.08300
C414        C  0.07837475  0.93874782  0.02039652     1.07100
C415        C  0.03113769  0.01938752  0.89597116     1.07100
C416        C  0.00723414  0.91774134  0.93258491     1.10100
C417        C  0.09965583  0.04031986  0.98694254     1.07800
H418        H  0.98958348  0.98102225  0.92705294     0.33400
O419        O  0.99051142  0.98828752  0.94824922    -1.28500
H420        H  0.06465022  0.00194102  0.02558662     0.33100
O421        O  0.04381641  0.00334615  0.01730447    -1.30200
O422        O  0.92387057  0.06568902  0.95552937    -0.86000
O423        O  0.97890215  0.97687228  0.09450381    -0.87500
O424        O  0.92946876  0.96879162  0.92698513    -0.86000
O425        O  0.02990189  0.10064874  0.98362388    -0.86100
O426        O  0.05509092  0.04701769  0.06914763    -0.85800
O427        O  0.95899983  0.91064364  0.01010798    -0.85600
O428        O  0.89265307  0.99967552  0.02410874    -0.86000
O429        O  0.95179853  0.07905295  0.05741075    -0.85400
O430        O  0.90245295  0.95724925  0.99379963    -0.86500
O431        O  0.00273361  0.09432605  0.04953412    -0.85700
O432        O  0.94363987  0.01721260  0.91084939    -0.86100
O433        O  0.99289178  0.92074623  0.05030070    -0.85800
O434        O  0.04171486  0.99847665  0.08570322    -0.85400
O435        O  0.99295153  0.09181693  0.94639138    -0.85900
O436        O  0.90630636  0.05954544  0.00538111    -0.86100
O437        O  0.93813344  0.00942313  0.08485763    -0.87500
Zr438      Zr  0.97475896  0.03967964  0.95052038     2.83100
Zr439      Zr  0.01009996  0.97341411  0.04732434     2.83500
Zr440      Zr  0.95622486  0.95886861  0.97829436     2.84100
Zr441      Zr  0.02788782  0.05512899  0.01895686     2.83400
Zr442      Zr  0.94301552  0.02790383  0.03200730     2.84200
O443        O  0.99445581  0.02502731  0.04987596    -1.08100
O444        O  0.94090104  0.01020401  0.98070717    -1.07600
C445        C  0.90377111  0.06973217  0.97755289     1.07100
C446        C  0.95402574  0.99135082  0.10242193     1.09700
C447        C  0.92867288  0.99169347  0.90718286     1.07300
C448        C  0.01427622  0.10859255  0.95906564     1.07600
C449        C  0.05637111  0.02435043  0.08889098     1.07200
C450        C  0.97420345  0.90288968  0.03506912     1.06800
C451        C  0.88387290  0.97497804  0.00880477     1.07200
C452        C  0.97503350  0.09856535  0.05978270     1.06700
H453        H  0.94491549  0.96331893  0.04261834     0.33400
O454        O  0.95843509  0.97605594  0.02993478    -1.29200
H455        H  0.96956790  0.07954702  0.00079692     0.33400
O456        O  0.97640870  0.05832575  0.00111498    -1.30500
C457        C  0.48735548  0.38228611  0.27626703    -0.05000
C458        C  0.48090554  0.41393482  0.27376500     0.09200
C459        C  0.47506616  0.42653822  0.24443325    -0.02300
C460        C  0.47915154  0.40841502  0.21735070    -0.00600
C461        C  0.48567692  0.37555594  0.21913604    -0.04200
C462        C  0.48516009  0.36282595  0.25006042     0.02800
C463        C  0.47777600  0.43298706  0.30263892     0.09600
C464        C  0.46519807  0.45852138  0.24219334     0.35500
C465        C  0.47672844  0.33106294  0.25722571     0.39000
C466        C  0.50036470  0.45587399  0.31046249    -0.04600
C467        C  0.49952751  0.47044551  0.33971179     0.02600
C468        C  0.47700824  0.46130464  0.36161255    -0.04200
C469        C  0.45408016  0.43892685  0.35373615    -0.00400
C470        C  0.45362860  0.42586797  0.32376765    -0.03000
C471        C  0.52513989  0.46381855  0.28909744     0.36300
C472        C  0.43208480  0.42807335  0.37688018     0.39900
C473        C  0.52276155  0.49386415  0.34802236     0.39000
C474        C  0.42892045  0.40428171  0.31486021     0.36000
C475        C  0.49445592  0.36915494  0.30653872     0.36600
C476        C  0.47857061  0.42495604  0.18804964     0.39900
N477        N  0.54112613  0.51253709  0.35495611    -0.38200
N478        N  0.54508536  0.47082589  0.27248070    -0.39800
N479        N  0.41459648  0.41919775  0.39528348    -0.37500
N480        N  0.40935336  0.38704462  0.30748770    -0.39900
N481        N  0.45719995  0.48397145  0.24058068    -0.39700
N482        N  0.47877864  0.43897213  0.16520458    -0.37300
N483        N  0.46937266  0.30636094  0.26489227    -0.38400
N484        N  0.49995200  0.35858878  0.33055624    -0.40000
C485        C  0.49851406  0.40340669  0.73058873    -0.05000
C486        C  0.47629235  0.39139366  0.70977067     0.09200
C487        C  0.45808030  0.36580056  0.71842268    -0.02300
C488        C  0.46001589  0.35361207  0.74885059    -0.00600
C489        C  0.48162139  0.36628884  0.77174431    -0.04200
C490        C  0.50283752  0.38994953  0.76019115     0.02800
C491        C  0.47404713  0.40438581  0.67758901     0.09600
C492        C  0.43580751  0.35305611  0.69612141     0.35500
C493        C  0.53160625  0.39914283  0.77557271     0.39000
C494        C  0.49196050  0.39134067  0.65375681    -0.04600
C495        C  0.49450764  0.40638527  0.62489320     0.02600
C496        C  0.47624015  0.43262564  0.61810128    -0.04200
C497        C  0.45887938  0.44611337  0.64237386    -0.00400
C498        C  0.45760416  0.43189732  0.67189371    -0.03000
C499        C  0.50949790  0.36341060  0.65970389     0.36300
C500        C  0.44665144  0.47705460  0.63869555     0.39900
C501        C  0.52006454  0.39801790  0.60501713     0.39000
C502        C  0.44094382  0.44662290  0.69699922     0.36000
C503        C  0.51803691  0.42939665  0.72078701     0.36600
C504        C  0.43658899  0.33030890  0.75634734     0.39900
N505        N  0.54217100  0.39174388  0.59132713    -0.38200
N506        N  0.52334808  0.34109265  0.66443950    -0.39800
N507        N  0.43763398  0.50209931  0.63638209    -0.37500
N508        N  0.42783585  0.45870796  0.71697004    -0.39900
N509        N  0.41801815  0.34303872  0.67838107    -0.39700
N510        N  0.41666249  0.31238022  0.75998080    -0.37300
N511        N  0.55522132  0.40687775  0.78629401    -0.38400
N512        N  0.53352373  0.45011439  0.71309687    -0.40000
C513        C  0.98155144  0.81558204  0.04641880    -0.05000
C514        C  0.97702699  0.81314922  0.07870657     0.09200
C515        C  0.96951810  0.83968339  0.09603997    -0.02300
C516        C  0.96649092  0.86848124  0.08124853    -0.00600
C517        C  0.97090850  0.87129223  0.04871185    -0.04200
C518        C  0.97896139  0.84459100  0.03157512     0.02800
C519        C  0.98090650  0.78274731  0.09480226     0.09600
C520        C  0.96696818  0.83803303  0.12959621     0.35500
C521        C  0.98911692  0.84730303  0.99985307     0.39000
C522        C  0.00727277  0.77733300  0.11293481    -0.04600
C523        C  0.00969475  0.74990756  0.13060823     0.02600
C524        C  0.98582913  0.72579745  0.12976751    -0.04200
C525        C  0.96008927  0.73158722  0.10874904    -0.00400
C526        C  0.95762812  0.75999833  0.09253409    -0.03000
C527        C  0.03176384  0.80098194  0.11416701     0.36300
C528        C  0.93610534  0.70940300  0.10040439     0.39900
C529        C  0.03619276  0.74911111  0.15148838     0.39000
C530        C  0.93078316  0.76611231  0.07276369     0.36000
C531        C  0.99082410  0.78848146  0.02883452     0.36600
C532        C  0.96185225  0.89555870  0.10060049     0.39900
N533        N  0.05768992  0.75154064  0.16760755    -0.38200
N534        N  0.05109357  0.81990786  0.11531269    -0.39800
N535        N  0.91568887  0.69454712  0.09065269    -0.37500
N536        N  0.90966167  0.77098540  0.05686484    -0.39900
N537        N  0.96553225  0.83790155  0.15639903    -0.39700
N538        N  0.95943422  0.91635960  0.11734358    -0.37300
N539        N  0.99871749  0.84825815  0.97490058    -0.38400
N540        N  0.99826522  0.76686415  0.01487112    -0.40000
C541        C  0.00338113  0.24179176  0.10130156    -0.05000
C542        C  0.97676560  0.22403335  0.10864602     0.09200
C543        C  0.95323874  0.23764299  0.12617107    -0.02300
C544        C  0.95704881  0.26800041  0.13841559    -0.00600
C545        C  0.98495953  0.28650947  0.13294297    -0.04200
C546        C  0.00699901  0.27292822  0.11179617     0.02800
C547        C  0.97300765  0.19126201  0.09671768     0.09600
C548        C  0.92510747  0.21964848  0.13253913     0.35500
C549        C  0.03238118  0.29002758  0.09767791     0.39000
C550        C  0.97474063  0.16557818  0.11707310    -0.04600
C551        C  0.97283367  0.13497131  0.10527984     0.02600
C552        C  0.96994766  0.12975794  0.07314292    -0.04200
C553        C  0.96744704  0.15531339  0.05289954    -0.00400
C554        C  0.96809985  0.18583829  0.06470040    -0.03000
C555        C  0.97901447  0.17032681  0.15013061     0.36300
C556        C  0.96405853  0.15016318  0.01973479     0.39900
C557        C  0.97471881  0.10880931  0.12613848     0.39000
C558        C  0.96385711  0.21173717  0.04379537     0.36000
C559        C  0.02764071  0.22758312  0.08285545     0.36600
C560        C  0.93229265  0.27821826  0.15865767     0.39900
N561        N  0.97600765  0.08808080  0.14300277    -0.38200
N562        N  0.98213443  0.17328032  0.17666682    -0.39800
N563        N  0.96063913  0.14603308  0.99338665    -0.37500
N564        N  0.96042051  0.23233702  0.02706392    -0.39900
N565        N  0.90288462  0.20520294  0.13785455    -0.39700
N566        N  0.91150344  0.28419473  0.17446467    -0.37300
N567        N  0.05243120  0.30209620  0.08429509    -0.38400
N568        N  0.04700828  0.21642427  0.06817195    -0.40000
C569        C  0.51105506  0.66012986  0.27938552    -0.05000
C570        C  0.51369421  0.62803296  0.28301470     0.09200
C571        C  0.50880559  0.60838525  0.25731119    -0.02300
C572        C  0.50341845  0.62106218  0.22749793    -0.00600
C573        C  0.50113785  0.65423124  0.22328102    -0.04200
C574        C  0.50028887  0.67230715  0.25125588     0.02800
C575        C  0.51457087  0.61528653  0.31514669     0.09600
C576        C  0.51034745  0.57506746  0.26156809     0.35500
C577        C  0.48100433  0.69935853  0.25449920     0.39000
C578        C  0.48692540  0.61501694  0.33247337    -0.04600
C579        C  0.48708015  0.60538344  0.36351206     0.02600
C580        C  0.51479087  0.59409637  0.37740340    -0.04200
C581        C  0.54284032  0.59578612  0.36029460    -0.00400
C582        C  0.54259201  0.60593866  0.32911411    -0.03000
C583        C  0.45779306  0.62394369  0.31805989     0.36300
C584        C  0.57204714  0.58694091  0.37421235     0.39900
C585        C  0.45816341  0.60724229  0.38075108     0.39000
C586        C  0.57099623  0.60569410  0.31113070     0.36000
C587        C  0.51721433  0.68069134  0.30558074     0.36600
C588        C  0.50138365  0.59958668  0.20144269     0.39900
N589        N  0.43465798  0.60875925  0.39361081    -0.38200
N590        N  0.43429211  0.63076533  0.30705708    -0.39800
N591        N  0.59586369  0.58057632  0.38477060    -0.37500
N592        N  0.59387045  0.60490790  0.29711287    -0.39900
N593        N  0.51173071  0.54854172  0.26515076    -0.39700
N594        N  0.49978731  0.58218251  0.18095887    -0.37300
N595        N  0.46477517  0.72005825  0.25903855    -0.38400
N596        N  0.52245618  0.69710340  0.32631643    -0.40000
C597        C  0.52098846  0.56823831  0.68488983    -0.05000
C598        C  0.51465047  0.60030549  0.68638548     0.09200
C599        C  0.51193456  0.61748395  0.65893196    -0.02300
C600        C  0.51674893  0.60313544  0.63021055    -0.00600
C601        C  0.51987468  0.57042586  0.62817671    -0.04200
C602        C  0.52259217  0.55310312  0.65581035     0.02800
C603        C  0.50893054  0.61619864  0.71659955     0.09600
C604        C  0.50231304  0.64968835  0.66020008     0.35500
C605        C  0.52499335  0.51962324  0.65451393     0.39000
C606        C  0.52925359  0.63974866  0.72696795    -0.04600
C607        C  0.52318196  0.65601860  0.75472677     0.02600
C608        C  0.49755306  0.64707742  0.77456518    -0.04200
C609        C  0.47488680  0.62588715  0.76074371    -0.00400
C610        C  0.48106636  0.61064179  0.73239477    -0.03000
C611        C  0.55750862  0.64632131  0.70948622     0.36300
C612        C  0.44369048  0.62080185  0.77269591     0.39900
C613        C  0.54621795  0.67942521  0.76337818     0.39000
C614        C  0.45774976  0.59027575  0.71807999     0.36000
C615        C  0.52430290  0.55053310  0.71320830     0.36600
C616        C  0.51853416  0.62269243  0.60300853     0.39900
N617        N  0.56594170  0.69745994  0.76782131    -0.38200
N618        N  0.57989760  0.65164933  0.69554989    -0.39800
N619        N  0.41840566  0.61639209  0.78092704    -0.37500
N620        N  0.43928197  0.57433877  0.70628918    -0.39900
N621        N  0.49434341  0.67517868  0.66153125    -0.39700
N622        N  0.52011518  0.63960941  0.58233390    -0.37300
N623        N  0.52674457  0.49289779  0.65330947    -0.38400
N624        N  0.52687008  0.53609870  0.73562951    -0.40000
C625        C  0.02387641  0.19581897  0.94556699    -0.05000
C626        C  0.01987038  0.19756228  0.91290314     0.09200
C627        C  0.01982282  0.16994447  0.89548498    -0.02300
C628        C  0.01570798  0.14142065  0.91043689    -0.00600
C629        C  0.02007271  0.13905448  0.94321552    -0.04200
C630        C  0.02658420  0.16657963  0.96022268     0.02800
C631        C  0.01415944  0.22774330  0.89635861     0.09600
C632        C  0.02265114  0.17092409  0.86187743     0.35500
C633        C  0.03409447  0.16513130  0.99300588     0.39000
C634        C  0.03673194  0.25137078  0.89644806    -0.04600
C635        C  0.03136262  0.27980950  0.88102273     0.02600
C636        C  0.00260831  0.28520417  0.86370111    -0.04200
C637        C  0.98370072  0.25787397  0.85890432    -0.00400
C638        C  0.98767761  0.23108731  0.87734570    -0.03000
C639        C  0.06667472  0.24551673  0.91116188     0.36300
C640        C  0.95864315  0.25651676  0.83629479     0.39900
C641        C  0.05826202  0.30062337  0.88107999     0.39000
C642        C  0.96343560  0.20716182  0.87760542     0.36000
C643        C  0.02430557  0.22382148  0.96430110     0.36600
C644        C  0.00414416  0.11569995  0.89158793     0.39900
N645        N  0.08071146  0.31578245  0.88154794    -0.38200
N646        N  0.09044753  0.24082630  0.92280792    -0.39800
N647        N  0.93852581  0.25291564  0.81866467    -0.37500
N648        N  0.94414900  0.18816888  0.87789914    -0.39900
N649        N  0.02497789  0.17165978  0.83514506    -0.39700
N650        N  0.99392778  0.09595363  0.87621047    -0.37300
N651        N  0.04035497  0.16376374  0.01910418    -0.38400
N652        N  0.02486706  0.24608487  0.97938857    -0.40000
C653        C  0.98598288  0.78805671  0.84381436    -0.05000
C654        C  0.00528661  0.79800522  0.86828422     0.09200
C655        C  0.02262594  0.77603762  0.88439038    -0.02300
C656        C  0.02397597  0.74517702  0.87359877    -0.00600
C657        C  0.00078664  0.73285590  0.85209892    -0.04200
C658        C  0.98109664  0.75601547  0.83814775     0.02800
C659        C  0.00480433  0.83086091  0.87984398     0.09600
C660        C  0.03958420  0.78540634  0.91230635     0.35500
C661        C  0.95409877  0.74787576  0.81933342     0.39000
C662        C  0.97829924  0.84109305  0.89545212    -0.04600
C663        C  0.97935872  0.86862581  0.91285846     0.02600
C664        C  0.00688822  0.88815164  0.91340143    -0.04200
C665        C  0.03279335  0.87864672  0.89552327    -0.00400
C666        C  0.03176942  0.85001769  0.87917534    -0.03000
C667        C  0.94960181  0.82278730  0.89456893     0.36300
C668        C  0.06070078  0.89782281  0.89385078     0.39900
C669        C  0.95199505  0.87462932  0.93183342     0.39000
C670        C  0.05866787  0.83985315  0.86187444     0.36000
C671        C  0.96992853  0.81099350  0.82531284     0.36600
C672        C  0.05221305  0.72968664  0.88260561     0.39900
N673        N  0.93022176  0.87907259  0.94685613    -0.38200
N674        N  0.92611784  0.80935634  0.89389350    -0.39800
N675        N  0.08302484  0.91304952  0.89227692    -0.37500
N676        N  0.08010217  0.83154319  0.84815458    -0.39900
N677        N  0.05273110  0.79294646  0.93464376    -0.39700
N678        N  0.07563642  0.71920283  0.89025320    -0.37300
N679        N  0.93185735  0.74310823  0.80475548    -0.38400
N680        N  0.95722905  0.82930401  0.81056042    -0.40000
C681        C  0.07861776  0.43292018  0.91988450    -0.05000
C682        C  0.08598265  0.41001092  0.89774045     0.09200
C683        C  0.11749695  0.40288052  0.89272260    -0.02300
C684        C  0.14129915  0.41816884  0.90978234    -0.00600
C685        C  0.13394367  0.43958193  0.93397762    -0.04200
C686        C  0.10186490  0.44529608  0.93978336     0.02800
C687        C  0.06054811  0.38979661  0.88387159     0.09600
C688        C  0.12576127  0.37943876  0.87003443     0.35500
C689        C  0.09189833  0.46211559  0.96720849     0.39000
C690        C  0.05654916  0.38665265  0.85158771    -0.04600
C691        C  0.03699217  0.36287814  0.83890469     0.02600
C692        C  0.01743721  0.34403857  0.85863005    -0.04200
C693        C  0.01889960  0.35144124  0.89147019    -0.00400
C694        C  0.04179551  0.37185301  0.90362326    -0.03000
C695        C  0.07299438  0.40809757  0.83127784     0.36300
C696        C  0.00022677  0.33532129  0.91452455     0.39900
C697        C  0.03758704  0.35971148  0.80550495     0.39000
C698        C  0.04780164  0.37238938  0.93695718     0.36000
C699        C  0.04669593  0.44320400  0.92264948     0.36600
C700        C  0.17325709  0.41080198  0.90218815     0.39900
N701        N  0.03886552  0.35876983  0.77869875    -0.38200
N702        N  0.08612897  0.42514021  0.81512032    -0.39800
N703        N  0.98705652  0.32362950  0.93482273    -0.37500
N704        N  0.05262202  0.37261699  0.96339895    -0.39900
N705        N  0.13273481  0.36116536  0.85169645    -0.39700
N706        N  0.19865806  0.40476567  0.89605213    -0.37300
N707        N  0.08358482  0.47532104  0.98902858    -0.38400
N708        N  0.02127195  0.45143529  0.92466400    -0.40000
C709        C  0.04231160  0.38551256  0.11369761    -0.05000
C710        C  0.07213404  0.37341809  0.11621333     0.09200
C711        C  0.07656625  0.34649415  0.13386335    -0.02300
C712        C  0.05071911  0.33033341  0.14710012    -0.00600
C713        C  0.01926853  0.33990174  0.14127379    -0.04200
C714        C  0.01695350  0.37078414  0.12835456     0.02800
C715        C  0.09872661  0.39118801  0.10201210     0.09600
C716        C  0.10775580  0.33436218  0.13681426     0.35500
C717        C  0.99176784  0.39148711  0.13543286     0.39000
C718        C  0.11686200  0.41189700  0.12031777    -0.04600
C719        C  0.13850394  0.43225771  0.10615328     0.02600
C720        C  0.14103091  0.43313730  0.07347340    -0.04200
C721        C  0.12359255  0.41179946  0.05532024    -0.00400
C722        C  0.10250470  0.39098818  0.06949261    -0.03000
C723        C  0.11220297  0.41320046  0.15359049     0.36300
C724        C  0.12903918  0.40940233  0.02229122     0.39900
C725        C  0.15842888  0.45208567  0.12519775     0.39000
C726        C  0.08396812  0.36986931  0.05048123     0.36000
C727        C  0.03805861  0.41468820  0.09731895     0.36600
C728        C  0.05773301  0.30388519  0.16628736     0.39900
N729        N  0.17472958  0.46760797  0.14024707    -0.38200
N730        N  0.10824611  0.41432271  0.18011180    -0.39800
N731        N  0.13382058  0.40610286  0.99612743    -0.37500
N732        N  0.06908295  0.35325051  0.03516513    -0.39900
N733        N  0.13255139  0.32446077  0.13890967    -0.39700
N734        N  0.06572254  0.28367226  0.18184104    -0.37300
N735        N  0.97302439  0.40932429  0.14176901    -0.38400
N736        N  0.03495378  0.43782548  0.08422798    -0.40000
C737        C  0.07673860  0.66254532  0.14782251    -0.05000
C738        C  0.07778170  0.65141834  0.11718490     0.09200
C739        C  0.05305942  0.65793450  0.09699893    -0.02300
C740        C  0.02710248  0.67477837  0.10730393    -0.00600
C741        C  0.02308725  0.68273918  0.13969890    -0.04200
C742        C  0.04992518  0.67773276  0.15928461     0.02800
C743        C  0.10462925  0.63257588  0.10551444     0.09600
C744        C  0.05341945  0.64540249  0.06554532     0.35500
C745        C  0.05258688  0.68946310  0.19062790     0.39000
C746        C  0.10908552  0.60187963  0.11606981    -0.04600
C747        C  0.13052868  0.58244081  0.10102660     0.02600
C748        C  0.14722129  0.59324697  0.07502023    -0.04200
C749        C  0.14310829  0.62389618  0.06471258    -0.00400
C750        C  0.12300806  0.64388740  0.08072019    -0.03000
C751        C  0.09160287  0.58994175  0.14223639     0.36300
C752        C  0.15774900  0.63409779  0.03618564     0.39900
C753        C  0.13516042  0.55116903  0.11218717     0.39000
C754        C  0.12047725  0.67594828  0.07105242     0.36000
C755        C  0.10372970  0.65827889  0.16773488     0.36600
C756        C  0.00374676  0.68081584  0.08378157     0.39900
N757        N  0.13867433  0.52630012  0.12138094    -0.38200
N758        N  0.07832027  0.58002792  0.16338042    -0.39800
N759        N  0.16898572  0.64196972  0.01311842    -0.37500
N760        N  0.11835447  0.70148961  0.06329325    -0.39900
N761        N  0.05374894  0.63541351  0.04058519    -0.39700
N762        N  0.98685345  0.68459225  0.06321486    -0.37300
N763        N  0.05679936  0.69913246  0.21538415    -0.38400
N764        N  0.12511263  0.65479739  0.18368413    -0.40000
C765        C  0.12699320  0.63608058  0.90660748    -0.05000
C766        C  0.09904218  0.62180889  0.89657332     0.09200
C767        C  0.09359524  0.59014572  0.90225478    -0.02300
C768        C  0.11543029  0.57298867  0.91916492    -0.00600
C769        C  0.14300146  0.58734140  0.93063179    -0.04200
C770        C  0.14891359  0.61901208  0.92363475     0.02800
C771        C  0.07417309  0.64045001  0.88173142     0.09600
C772        C  0.06548538  0.57522549  0.89025370     0.35500
C773        C  0.17730017  0.63448887  0.93408054     0.39000
C774        C  0.07407297  0.64546874  0.84971591    -0.04600
C775        C  0.04990889  0.66230977  0.83542069     0.02600
C776        C  0.02598882  0.67693512  0.85381951    -0.04200
C777        C  0.02623293  0.66942555  0.88665175    -0.00400
C778        C  0.04968232  0.65110743  0.89984502    -0.03000
C779        C  0.09828988  0.63133750  0.83115517     0.36300
C780        C  0.00446448  0.68234666  0.90874339     0.39900
C781        C  0.04957997  0.66069164  0.80178031     0.39000
C782        C  0.04901102  0.64339967  0.93273757     0.36000
C783        C  0.13339486  0.66831433  0.89922555     0.36600
C784        C  0.10990481  0.54018419  0.92301702     0.39900
N785        N  0.05039385  0.65811197  0.77502895    -0.38200
N786        N  0.11736602  0.61983330  0.81636480    -0.39800
N787        N  0.98872261  0.69161132  0.92833259    -0.37500
N788        N  0.04844989  0.63702711  0.95879398    -0.39900
N789        N  0.04310774  0.56349036  0.88050246    -0.39700
N790        N  0.10468185  0.51397632  0.92515411    -0.37300
N791        N  0.19990689  0.64716871  0.94194366    -0.38400
N792        N  0.13919786  0.69388947  0.89331742    -0.40000
C793        C  0.39422809  0.43076518  0.90372748    -0.05000
C794        C  0.38577219  0.40179176  0.89084755     0.09200
C795        C  0.35582327  0.38940348  0.89593255    -0.02300
C796        C  0.33415884  0.40587860  0.91382986    -0.00600
C797        C  0.34237125  0.43519856  0.92707860    -0.04200
C798        C  0.37287667  0.44736697  0.92193177     0.02800
C799        C  0.40734182  0.38598499  0.86892189     0.09600
C800        C  0.34701568  0.36002645  0.88162380     0.35500
C801        C  0.38235173  0.47755873  0.93402000     0.39000
C802        C  0.43078139  0.36674628  0.87989217    -0.04600
C803        C  0.45232107  0.35352514  0.85916687     0.02600
C804        C  0.45249488  0.36112071  0.82642189    -0.04200
C805        C  0.42720674  0.38065800  0.81611805    -0.00400
C806        C  0.40459776  0.39152931  0.83714725    -0.03000
C807        C  0.43271519  0.36068766  0.91298763     0.36300
C808        C  0.42448538  0.39409158  0.78555880     0.39900
C809        C  0.47351258  0.33115854  0.87239713     0.39000
C810        C  0.37893779  0.41054829  0.82637214     0.36000
C811        C  0.42458623  0.44415073  0.89690889     0.36600
C812        C  0.30354021  0.39209231  0.91840930     0.39900
N813        N  0.48896145  0.31292107  0.88432625    -0.38200
N814        N  0.43425496  0.35601093  0.93936985    -0.39800
N815        N  0.42030867  0.40654611  0.76220487    -0.37500
N816        N  0.35857099  0.42564983  0.81790573    -0.39900
N817        N  0.34004381  0.33673595  0.86993388    -0.39700
N818        N  0.27917420  0.38087229  0.92174661    -0.37300
N819        N  0.39028595  0.50150942  0.94362566    -0.38400
N820        N  0.44867218  0.45493006  0.89122249    -0.40000
C821        C  0.39909244  0.60229197  0.91861581    -0.05000
C822        C  0.39305751  0.60877616  0.88715354     0.09200
C823        C  0.36374082  0.60146757  0.87427597    -0.02300
C824        C  0.34057111  0.58722917  0.89257404    -0.00600
C825        C  0.34702643  0.57881463  0.92385902    -0.04200
C826        C  0.37619563  0.58754343  0.93697263     0.02800
C827        C  0.41792687  0.62266806  0.86713444     0.09600
C828        C  0.35745183  0.60864466  0.84196876     0.35500
C829        C  0.38204134  0.58360365  0.96989095     0.39000
C830        C  0.44097480  0.60373434  0.85507654    -0.04600
C831        C  0.46452094  0.61617875  0.83588318     0.02600
C832        C  0.46545415  0.64872103  0.82731021    -0.04200
C833        C  0.44079179  0.66738861  0.84004887    -0.00400
C834        C  0.41782070  0.65424373  0.85979366    -0.03000
C835        C  0.43990650  0.57071260  0.86217360     0.36300
C836        C  0.43911383  0.70067578  0.83651268     0.39900
C837        C  0.48581042  0.59351326  0.82351126     0.39000
C838        C  0.39429552  0.67357216  0.87402122     0.36000
C839        C  0.42888950  0.61118698  0.93213396     0.36600
C840        C  0.30981607  0.58287615  0.87911200     0.39900
N841        N  0.50033352  0.57293591  0.81462369    -0.38200
N842        N  0.43889417  0.54450523  0.86782592    -0.39800
N843        N  0.43671476  0.72734694  0.83547336    -0.37500
N844        N  0.37566468  0.68882120  0.88561262    -0.39900
N845        N  0.35236214  0.61440799  0.81625681    -0.39700
N846        N  0.28517986  0.58069632  0.86832534    -0.37300
N847        N  0.38674251  0.58092532  0.99619459    -0.38400
N848        N  0.45265558  0.61832605  0.94288172    -0.40000
C849        C  0.42715295  0.61830582  0.16403334    -0.05000
C850        C  0.42952519  0.61951323  0.13157408     0.09200
C851        C  0.45131969  0.63988112  0.11825373    -0.02300
C852        C  0.46906512  0.66018748  0.13720178    -0.00600
C853        C  0.47211462  0.65496567  0.16985785    -0.04200
C854        C  0.44724503  0.63653176  0.18306620     0.02800
C855        C  0.40447408  0.60512430  0.11163105     0.09600
C856        C  0.45338486  0.64221879  0.08470648     0.35500
C857        C  0.43791991  0.64013551  0.21516509     0.39000
C858        C  0.37572617  0.62019744  0.10845488    -0.04600
C859        C  0.35208669  0.60763566  0.08920893     0.02600
C860        C  0.35607390  0.57862596  0.07419551    -0.04200
C861        C  0.38549989  0.56384167  0.07704768    -0.00400
C862        C  0.40946017  0.57721948  0.09553870    -0.03000
C863        C  0.37014492  0.64859340  0.12560171     0.36300
C864        C  0.39138127  0.53433797  0.06197037     0.39900
C865        C  0.32426623  0.62562286  0.08405430     0.39000
C866        C  0.43915939  0.56191578  0.09863151     0.36000
C867        C  0.40280778  0.59918209  0.17779648     0.36600
C868        C  0.47354353  0.69087042  0.12446381     0.39900
N869        N  0.30231511  0.64031174  0.07998106    -0.38200
N870        N  0.36525208  0.67096330  0.13954145    -0.39800
N871        N  0.39628937  0.51077141  0.05014357    -0.37500
N872        N  0.46281419  0.54966067  0.10105293    -0.39900
N873        N  0.45530405  0.64395739  0.05799001    -0.39700
N874        N  0.47458416  0.71527606  0.11338648    -0.37300
N875        N  0.42935788  0.64308129  0.24039487    -0.38400
N876        N  0.38321976  0.58407938  0.18857257    -0.40000
C877        C  0.38391664  0.44637930  0.12458061    -0.05000
C878        C  0.38761052  0.41403528  0.12216010     0.09200
C879        C  0.36662707  0.39616450  0.10409670    -0.02300
C880        C  0.34318345  0.41079882  0.08707305    -0.00600
C881        C  0.34203882  0.44347311  0.08618766    -0.04200
C882        C  0.36064936  0.46102760  0.10700595     0.02800
C883        C  0.41361638  0.39825244  0.13825847     0.09600
C884        C  0.36915213  0.36262924  0.10308314     0.35500
C885        C  0.35298995  0.49302626  0.11338310     0.39000
C886        C  0.40876027  0.38437060  0.16718712    -0.04600
C887        C  0.43198784  0.36583266  0.18052120     0.02600
C888        C  0.46232479  0.36380635  0.16674968    -0.04200
C889        C  0.46438198  0.37388993  0.13506070    -0.00400
C890        C  0.44097490  0.39236377  0.12189597    -0.03000
C891        C  0.37972413  0.38955590  0.18339460     0.36300
C892        C  0.48488568  0.35981780  0.11281463     0.39900
C893        C  0.42345595  0.34787574  0.20760996     0.39000
C894        C  0.44439671  0.40448890  0.09059605     0.36000
C895        C  0.40359939  0.46437213  0.14548862     0.36600
C896        C  0.31860406  0.39202979  0.07325320     0.39900
N897        N  0.41469867  0.33351723  0.22853049    -0.38200
N898        N  0.35667345  0.39405284  0.19632419    -0.39800
N899        N  0.49891467  0.34891339  0.09275827    -0.37500
N900        N  0.44693901  0.41411452  0.06569288    -0.39900
N901        N  0.37113139  0.33591111  0.10218591    -0.39700
N902        N  0.29849321  0.37644328  0.06404301    -0.37300
N903        N  0.34604885  0.51815224  0.11941781    -0.38400
N904        N  0.41911970  0.47885979  0.16226627    -0.40000
C905        C  0.62350433  0.41317984  0.12236204    -0.05000
C906        C  0.59282975  0.40830532  0.11184022     0.09200
C907        C  0.58425085  0.41723345  0.08165168    -0.02300
C908        C  0.60634114  0.43117928  0.06181436    -0.00600
C909        C  0.63723407  0.43684089  0.07238657    -0.04200
C910        C  0.64554208  0.42764828  0.10304269     0.02800
C911        C  0.56962608  0.39342215  0.13279869     0.09600
C912        C  0.55244067  0.41232760  0.07119198     0.35500
C913        C  0.67642092  0.43356466  0.11572785     0.39000
C914        C  0.55824535  0.40979404  0.15833109    -0.04600
C915        C  0.53978001  0.39437450  0.18024939     0.02600
C916        C  0.52359612  0.36620460  0.17207136    -0.04200
C917        C  0.53901712  0.34807960  0.14858884    -0.00400
C918        C  0.56202702  0.36185683  0.12944372    -0.03000
C919        C  0.56667922  0.44220730  0.16300240     0.36300
C920        C  0.53176162  0.31561134  0.14258074     0.39900
C921        C  0.54512850  0.40369647  0.21219042     0.39000
C922        C  0.57734007  0.34391392  0.10545402     0.36000
C923        C  0.63229564  0.40350845  0.15344625     0.36600
C924        C  0.59695674  0.43925694  0.03052757     0.39900
N925        N  0.55046254  0.41110494  0.23751441    -0.38200
N926        N  0.57310918  0.46812331  0.16659487    -0.39800
N927        N  0.52692838  0.28975693  0.13675903    -0.37500
N928        N  0.58966346  0.32991072  0.08624430    -0.39900
N929        N  0.52705485  0.40847817  0.06286888    -0.39700
N930        N  0.58903055  0.44582739  0.00574040    -0.37300
N931        N  0.70089586  0.43760366  0.12638843    -0.38400
N932        N  0.63919177  0.39600692  0.17826754    -0.40000
C933        C  0.55591349  0.65282223  0.12042744    -0.05000
C934        C  0.57304053  0.62752603  0.13126527     0.09200
C935        C  0.57367538  0.62159795  0.16326388    -0.02300
C936        C  0.55538303  0.63929319  0.18369530    -0.00600
C937        C  0.53221058  0.66002112  0.17181340    -0.04200
C938        C  0.53898275  0.67109503  0.14142321     0.02800
C939        C  0.59509502  0.61114471  0.11020307     0.09600
C940        C  0.59391549  0.59777377  0.17540865     0.35500
C941        C  0.53838466  0.70400022  0.13495563     0.39000
C942        C  0.62318592  0.62590661  0.10149416    -0.04600
C943        C  0.64484675  0.61026046  0.08287329     0.02600
C944        C  0.63866707  0.57945589  0.07257611    -0.04200
C945        C  0.60993616  0.56504090  0.08082787    -0.00400
C946        C  0.58861088  0.58067400  0.10000458    -0.03000
C947        C  0.63004060  0.65726270  0.11217267     0.36300
C948        C  0.60212054  0.53394817  0.07019379     0.39900
C949        C  0.67319033  0.62655119  0.07404475     0.39000
C950        C  0.56016754  0.56520080  0.10990540     0.36000
C951        C  0.55682395  0.66101833  0.08783349     0.36600
C952        C  0.56548781  0.63980092  0.21584735     0.39900
N953        N  0.69569012  0.64000250  0.06754441    -0.38200
N954        N  0.63541331  0.68230057  0.12055594    -0.39800
N955        N  0.59530545  0.50933262  0.06156388    -0.37500
N956        N  0.53763441  0.55281367  0.11812669    -0.39900
N957        N  0.60979638  0.57869840  0.18525395    -0.39700
N958        N  0.57475568  0.64028827  0.24109100    -0.37300
N959        N  0.53910998  0.73027337  0.12951447    -0.38400
N960        N  0.55747175  0.66730550  0.06176316    -0.40000
C961        C  0.54579156  0.65214719  0.88440187    -0.05000
C962        C  0.57071431  0.63455981  0.87416494     0.09200
C963        C  0.57307255  0.62648291  0.84291285    -0.02300
C964        C  0.54847537  0.63229062  0.82216988    -0.00600
C965        C  0.52299628  0.65225932  0.83086371    -0.04200
C966        C  0.52258591  0.66162774  0.86328012     0.02800
C967        C  0.59276855  0.62043519  0.89650887     0.09600
C968        C  0.60066808  0.61017709  0.83246060     0.35500
C969        C  0.49996598  0.68295064  0.87574846     0.39000
C970        C  0.58556928  0.59091368  0.90845635    -0.04600
C971        C  0.60880058  0.57334101  0.92281556     0.02600
C972        C  0.63952272  0.58562945  0.92617456    -0.04200
C973        C  0.64615145  0.61607859  0.91509136    -0.00400
C974        C  0.62267431  0.63338365  0.90059099    -0.03000
C975        C  0.55434804  0.57804228  0.90460284     0.36300
C976        C  0.67701060  0.62990422  0.91786095     0.39900
C977        C  0.60107656  0.54181886  0.93206520     0.39000
C978        C  0.62939283  0.66420166  0.88871227     0.36000
C979        C  0.54494560  0.66164743  0.91679955     0.36600
C980        C  0.54936617  0.61283557  0.79472035     0.39900
N981        N  0.59463593  0.51671892  0.93925820    -0.38200
N982        N  0.52946373  0.56785275  0.90158723    -0.39800
N983        N  0.70145559  0.64139636  0.91955327    -0.37500
N984        N  0.63461900  0.68877219  0.87919465    -0.39900
N985        N  0.62263548  0.59743629  0.82411150    -0.39700
N986        N  0.55185393  0.59556505  0.77426729    -0.37300
N987        N  0.48349758  0.70019997  0.88780952    -0.38400
N988        N  0.54440255  0.66948883  0.94250344    -0.40000
C989        C  0.59770970  0.43920007  0.87479669    -0.05000
C990        C  0.58298070  0.41168386  0.88560961     0.09200
C991        C  0.59238772  0.39936212  0.91457058    -0.02300
C992        C  0.61779373  0.41277095  0.93101702    -0.00600
C993        C  0.63234731  0.44011456  0.92004558    -0.04200
C994        C  0.62129263  0.45396512  0.89262334     0.02800
C995        C  0.55761961  0.39585495  0.86659054     0.09600
C996        C  0.57525704  0.37352261  0.92799658     0.35500
C997        C  0.63336051  0.48410578  0.88334886     0.39000
C998        C  0.56145346  0.36563208  0.85502026    -0.04600
C999        C  0.53695742  0.34995783  0.83892536     0.02600
C1000       C  0.51038629  0.36666212  0.82719730    -0.04200
C1001       C  0.50827022  0.39840336  0.83824214    -0.00400
C1002       C  0.52988007  0.41118397  0.85977511    -0.03000
C1003       C  0.59093145  0.35026642  0.86010475     0.36300
C1004       C  0.48558575  0.41988550  0.82609414     0.39900
C1005       C  0.53954765  0.31650289  0.83837493     0.39000
C1006       C  0.52397624  0.44098271  0.87435731     0.36000
C1007       C  0.58840172  0.45277714  0.84550552     0.36600
C1008       C  0.62885279  0.39856485  0.95939271     0.39900
N1009       N  0.54286867  0.28992017  0.83941206    -0.38200
N1010       N  0.61443097  0.33812303  0.86414020    -0.39800
N1011       N  0.46881428  0.43855535  0.81696150    -0.37500
N1012       N  0.51956289  0.46479931  0.88586673    -0.39900
N1013       N  0.56146606  0.35304288  0.93880879    -0.39700
N1014       N  0.63774950  0.38717687  0.98196577    -0.37300
N1015       N  0.64261823  0.50833059  0.87608689    -0.38400
N1016       N  0.58073868  0.46405731  0.82243601    -0.40000
C1017       C  0.85621892  0.37951463  0.08980937    -0.05000
C1018       C  0.88254228  0.39408063  0.10347826     0.09200
C1019       C  0.88682758  0.42645188  0.10010528    -0.02300
C1020       C  0.86564036  0.44387691  0.08244912    -0.00600
C1021       C  0.83998946  0.42915659  0.06769066    -0.04200
C1022       C  0.83538380  0.39675605  0.07152458     0.02800
C1023       C  0.90808714  0.37445251  0.11655791     0.09600
C1024       C  0.91308267  0.44235621  0.11441773     0.35500
C1025       C  0.81016689  0.38066274  0.05539892     0.39000
C1026       C  0.92818102  0.35965837  0.09604081    -0.04600
C1027       C  0.95308965  0.34171391  0.10715145     0.02600
C1028       C  0.95866438  0.33721039  0.14007315    -0.04200
C1029       C  0.93586821  0.35078955  0.16038126    -0.00400
C1030       C  0.91157379  0.36964594  0.14855022    -0.03000
C1031       C  0.92337243  0.36361575  0.06276921     0.36300
C1032       C  0.93518188  0.34534920  0.19333989     0.39900
C1033       C  0.97348998  0.33010781  0.08320154     0.39000
C1034       C  0.88977682  0.38441410  0.16940602     0.36000
C1035       C  0.85114729  0.34643888  0.09390615     0.36600
C1036       C  0.87035097  0.47715067  0.07973119     0.39900
N1037       N  0.98762766  0.32235712  0.06180601    -0.38200
N1038       N  0.91930503  0.36670279  0.03640088    -0.39800
N1039       N  0.93240787  0.34140368  0.21970238    -0.37500
N1040       N  0.87243095  0.39630336  0.18594218    -0.39900
N1041       N  0.93322943  0.45678300  0.12533733    -0.39700
N1042       N  0.87445743  0.50361213  0.07748681    -0.37300
N1043       N  0.79023948  0.36764652  0.04246410    -0.38400
N1044       N  0.84715424  0.32007278  0.09725105    -0.40000
C1045       C  0.85996871  0.39853553  0.88085914    -0.05000
C1046       C  0.88691371  0.39015687  0.89747551     0.09200
C1047       C  0.89160283  0.40153029  0.92783823    -0.02300
C1048       C  0.86885184  0.41989123  0.94219767    -0.00600
C1049       C  0.84165588  0.42855951  0.92567285    -0.04200
C1050       C  0.83770606  0.41805137  0.89462053     0.02800
C1051       C  0.91112422  0.37007559  0.88281944     0.09600
C1052       C  0.92034609  0.39469787  0.94411391     0.35500
C1053       C  0.81137604  0.42807330  0.87620853     0.39000
C1054       C  0.93162551  0.38264109  0.86110702    -0.04600
C1055       C  0.95478034  0.36424517  0.84745134     0.02600
C1056       C  0.96138957  0.33313590  0.85824565    -0.04200
C1057       C  0.93948650  0.32097101  0.88085595    -0.00400
C1058       C  0.91440609  0.33913611  0.89187600    -0.03000
C1059       C  0.92925999  0.41531379  0.85325437     0.36300
C1060       C  0.94205117  0.29134801  0.89609654     0.39900
C1061       C  0.96960441  0.37780444  0.82044090     0.39000
C1062       C  0.89250718  0.32657021  0.91445131     0.36000
C1063       C  0.85538369  0.38735559  0.84934879     0.36600
C1064       C  0.87342539  0.42876530  0.97440928     0.39900
N1065       N  0.97877302  0.39009684  0.79840148    -0.38200
N1066       N  0.92751410  0.44136840  0.84728475    -0.39800
N1067       N  0.94170715  0.26887668  0.91071157    -0.37500
N1068       N  0.87532102  0.31670608  0.93263627    -0.39900
N1069       N  0.94339595  0.38933922  0.95684564    -0.39700
N1070       N  0.87771573  0.43547274  0.00010604    -0.37300
N1071       N  0.79049768  0.43599888  0.86132453    -0.38400
N1072       N  0.85174497  0.37859005  0.82416010    -0.40000
C1073       C  0.86378293  0.61956307  0.88395997    -0.05000
C1074       C  0.89446605  0.62057518  0.89546224     0.09200
C1075       C  0.90218158  0.60231530  0.92137283    -0.02300
C1076       C  0.87928563  0.58366557  0.93620185    -0.00600
C1077       C  0.84768758  0.58352375  0.92572500    -0.04200
C1078       C  0.84056720  0.60138870  0.89879229     0.02800
C1079       C  0.91892349  0.64065750  0.87997159     0.09600
C1080       C  0.93402742  0.60280316  0.93278945     0.35500
C1081       C  0.80971091  0.60044403  0.88498316     0.39000
C1082       C  0.91997272  0.67276932  0.88513330    -0.04600
C1083       C  0.94433220  0.69161663  0.87277152     0.02600
C1084       C  0.96788794  0.67886912  0.85257520    -0.04200
C1085       C  0.96524100  0.64567053  0.84727484    -0.00400
C1086       C  0.94141741  0.62730654  0.86095765    -0.03000
C1087       C  0.89641637  0.68624869  0.90503737     0.36300
C1088       C  0.98596737  0.62922912  0.82664602     0.39900
C1089       C  0.94612085  0.72256660  0.88573929     0.39000
C1090       C  0.93970045  0.59406961  0.85518338     0.36000
C1091       C  0.85626135  0.63705369  0.85627689     0.36600
C1092       C  0.88884835  0.56522707  0.96259384     0.39900
N1093       N  0.94689194  0.74640136  0.89813855    -0.38200
N1094       N  0.87766309  0.69693202  0.92085284    -0.39800
N1095       N  0.00100683  0.61406467  0.81054651    -0.37500
N1096       N  0.93829927  0.56761020  0.85071792    -0.39900
N1097       N  0.95949180  0.60315630  0.94162652    -0.39700
N1098       N  0.89677976  0.55078437  0.98371062    -0.37300
N1099       N  0.78523659  0.59970222  0.87367992    -0.38400
N1100       N  0.85039024  0.65101156  0.83418805    -0.40000
C1101       C  0.94687942  0.62071727  0.11855892    -0.05000
C1102       C  0.91587904  0.62934434  0.12127366     0.09200
C1103       C  0.90825170  0.65341366  0.14189814    -0.02300
C1104       C  0.93204029  0.67282916  0.15465293    -0.00600
C1105       C  0.96399024  0.66890564  0.14570657    -0.04200
C1106       C  0.97046982  0.63867033  0.13285096     0.02800
C1107       C  0.89132943  0.61176250  0.10369094     0.09600
C1108       C  0.87571860  0.66006146  0.14753636     0.35500
C1109       C  0.99923460  0.62247020  0.13818380     0.39000
C1110       C  0.87220445  0.59005434  0.11916084    -0.04600
C1111       C  0.84910375  0.57339458  0.10259964     0.02600
C1112       C  0.84497067  0.57850966  0.07052705    -0.04200
C1113       C  0.86414533  0.60012190  0.05506783    -0.00400
C1114       C  0.88817177  0.61568189  0.07126849    -0.03000
C1115       C  0.87756618  0.58386908  0.15179001     0.36300
C1116       C  0.85806273  0.60762623  0.02288304     0.39900
C1117       C  0.83021538  0.55044307  0.11844982     0.39000
C1118       C  0.91050008  0.63428539  0.05409377     0.36000
C1119       C  0.95432394  0.59221117  0.10216481     0.36600
C1120       C  0.92236784  0.69667537  0.17611848     0.39900
N1121       N  0.81556012  0.53196111  0.13138329    -0.38200
N1122       N  0.88249099  0.57920954  0.17775681    -0.39800
N1123       N  0.85275139  0.61425141  0.99745084    -0.37500
N1124       N  0.92850392  0.64830857  0.03977832    -0.39900
N1125       N  0.84977089  0.66533103  0.15186024    -0.39700
N1126       N  0.91289537  0.71431879  0.19391348    -0.37300
N1127       N  0.02130063  0.60804388  0.14232245    -0.38400
N1128       N  0.96019317  0.56948556  0.08922482    -0.40000
C1129       C  0.07018825  0.04842940  0.82303383    -0.05000
C1130       C  0.07403033  0.02018427  0.80672168     0.09200
C1131       C  0.06133633  0.99248703  0.81920011    -0.02300
C1132       C  0.04293320  0.99368696  0.84598291    -0.00600
C1133       C  0.04229778  0.02111431  0.86385696    -0.04200
C1134       C  0.05716641  0.04814813  0.85288613     0.02800
C1135       C  0.09288490  0.01906601  0.77764042     0.09600
C1136       C  0.06906390  0.96251599  0.80607246     0.35500
C1137       C  0.06316714  0.07407777  0.87363187     0.39000
C1138       C  0.12440185  0.02809950  0.77782008    -0.04600
C1139       C  0.14094902  0.02990211  0.74957214     0.02600
C1140       C  0.12888262  0.01509192  0.72158109    -0.04200
C1141       C  0.10013045  0.99839748  0.72597024    -0.00400
C1142       C  0.08023702  0.00633603  0.75033247    -0.03000
C1143       C  0.13966641  0.03638215  0.80694588     0.36300
C1144       C  0.09427954  0.96775410  0.71339144     0.39900
C1145       C  0.16856406  0.04957263  0.75050995     0.39000
C1146       C  0.04733499  0.99851728  0.74819546     0.36000
C1147       C  0.08064206  0.07770696  0.81007356     0.36600
C1148       C  0.02493016  0.96660598  0.85531106     0.39900
N1149       N  0.18999820  0.06586755  0.75346518    -0.38200
N1150       N  0.15188778  0.04289849  0.83009614    -0.39800
N1151       N  0.08889961  0.94284498  0.70470044    -0.37500
N1152       N  0.02110249  0.99232188  0.74654931    -0.39900
N1153       N  0.07559017  0.93859672  0.79592945    -0.39700
N1154       N  0.00996163  0.94522283  0.86214052    -0.37300
N1155       N  0.06951013  0.09431866  0.89029365    -0.38400
N1156       N  0.08864476  0.10155937  0.80058327    -0.40000
C1157       C  0.09310368  0.05638348  0.16396955    -0.05000
C1158       C  0.10486790  0.02901793  0.17733329     0.09200
C1159       C  0.10417370  0.00128105  0.16006205    -0.02300
C1160       C  0.08848614  0.99974855  0.13146688    -0.00600
C1161       C  0.07578446  0.02700894  0.11788865    -0.04200
C1162       C  0.07939998  0.05559528  0.13400718     0.02800
C1163       C  0.11618340  0.02797966  0.21031566     0.09600
C1164       C  0.11866553  0.97363985  0.17251394     0.35500
C1165       C  0.06712334  0.08392055  0.12102061     0.39000
C1166       C  0.10052044  0.00898823  0.23173479    -0.04600
C1167       C  0.11501220  0.00084106  0.25985519     0.02600
C1168       C  0.14013376  0.01965077  0.27245045    -0.04200
C1169       C  0.15501686  0.04022163  0.25022288    -0.00400
C1170       C  0.14446857  0.04200881  0.21910228    -0.03000
C1171       C  0.07007817  0.99592579  0.22383512     0.36300
C1172       C  0.17887876  0.06276639  0.25895212     0.39900
C1173       C  0.10594519  0.97053153  0.27150566     0.39000
C1174       C  0.16222172  0.05940306  0.19624421     0.36000
C1175       C  0.09412780  0.08522320  0.18134968     0.36600
C1176       C  0.08450813  0.96923606  0.11742061     0.39900
N1177       N  0.09822529  0.94595871  0.27936721    -0.38200
N1178       N  0.04586511  0.98555582  0.21758108    -0.39800
N1179       N  0.19729829  0.08197076  0.26404670    -0.37500
N1180       N  0.17631267  0.07328680  0.17802816    -0.39900
N1181       N  0.12993667  0.95161924  0.18257612    -0.39700
N1182       N  0.08122217  0.94452550  0.10724577    -0.37300
N1183       N  0.05745517  0.10659604  0.11071539    -0.38400
N1184       N  0.09495237  0.10849464  0.19480483    -0.40000
C1185       C  0.18710483  0.49431355  0.25756863    -0.05000
C1186       C  0.21135235  0.51402075  0.24791207     0.09200
C1187       C  0.22754580  0.53167031  0.27010329    -0.02300
C1188       C  0.21798314  0.53197589  0.30152227    -0.00600
C1189       C  0.19314919  0.51193585  0.31277070    -0.04200
C1190       C  0.17957553  0.49127752  0.28951019     0.02800
C1191       C  0.22062540  0.51555320  0.21425610     0.09600
C1192       C  0.25449588  0.54982850  0.26025244     0.35500
C1193       C  0.16120971  0.46380187  0.29678784     0.39000
C1194       C  0.21165628  0.54084579  0.19575822    -0.04600
C1195       C  0.21958925  0.54195626  0.16398964     0.02600
C1196       C  0.23673002  0.51758868  0.15018607    -0.04200
C1197       C  0.24760039  0.49343187  0.16944720    -0.00400
C1198       C  0.23929232  0.49227675  0.20114455    -0.03000
C1199       C  0.19421021  0.56600997  0.20933048     0.36300
C1200       C  0.26843309  0.47031975  0.15704956     0.39900
C1201       C  0.20959294  0.56833881  0.14587581     0.39000
C1202       C  0.25027660  0.46721791  0.22046002     0.36000
C1203       C  0.17056961  0.47594742  0.23423132     0.36600
C1204       C  0.23385448  0.55464459  0.32103885     0.39900
N1205       N  0.20174668  0.58986829  0.13211848    -0.38200
N1206       N  0.18055884  0.58662671  0.21943025    -0.39800
N1207       N  0.28519590  0.45201102  0.14718807    -0.37500
N1208       N  0.25909268  0.44718786  0.23580324    -0.39900
N1209       N  0.27605217  0.56403017  0.25231612    -0.39700
N1210       N  0.24806277  0.57360779  0.33411444    -0.37300
N1211       N  0.14728800  0.44104238  0.30109355    -0.38400
N1212       N  0.15744762  0.46136803  0.21562230    -0.40000
C1213       C  0.26331655  0.47121590  0.37324710    -0.05000
C1214       C  0.27433567  0.48988343  0.39766722     0.09200
C1215       C  0.25977502  0.51802002  0.40419003    -0.02300
C1216       C  0.23262472  0.52671708  0.38797701    -0.00600
C1217       C  0.21835382  0.50621490  0.36521916    -0.04200
C1218       C  0.23655599  0.47959285  0.35633752     0.02800
C1219       C  0.30480543  0.48301768  0.41261786     0.09600
C1220       C  0.27420136  0.53909062  0.42667630     0.35500
C1221       C  0.22726134  0.45817371  0.33185592     0.39000
C1222       C  0.33195626  0.48802662  0.39529379    -0.04600
C1223       C  0.36109647  0.48642852  0.40968884     0.02600
C1224       C  0.36350206  0.48191739  0.44239927    -0.04200
C1225       C  0.33618878  0.47499934  0.45939945    -0.00400
C1226       C  0.30693195  0.47484510  0.44427582    -0.03000
C1227       C  0.32988295  0.49678128  0.36273074     0.36300
C1228       C  0.33770213  0.47047537  0.49269954     0.39900
C1229       C  0.38812337  0.49139985  0.39016124     0.39000
C1230       C  0.27894690  0.46740235  0.46150473     0.36000
C1231       C  0.27939678  0.44255652  0.36610475     0.36600
C1232       C  0.22269053  0.55827025  0.39353363     0.39900
N1233       N  0.40832613  0.49626806  0.37315590    -0.38200
N1234       N  0.32829789  0.50369334  0.33685487    -0.39800
N1235       N  0.33903684  0.46708131  0.51929792    -0.37500
N1236       N  0.25680667  0.46124530  0.47550073    -0.39900
N1237       N  0.28596372  0.55581479  0.44436686    -0.39700
N1238       N  0.21608396  0.58376779  0.39837279    -0.37300
N1239       N  0.22224484  0.43976586  0.31280065    -0.38400
N1240       N  0.29234920  0.41990856  0.36038858    -0.40000
C1241       C  0.74770228  0.52658936  0.19401008    -0.05000
C1242       C  0.76608019  0.50275022  0.20653540     0.09200
C1243       C  0.77582339  0.47846570  0.18708160    -0.02300
C1244       C  0.76818569  0.47836260  0.15521067    -0.00600
C1245       C  0.75092063  0.50301458  0.14200423    -0.04200
C1246       C  0.74019260  0.52682010  0.16199834     0.02800
C1247       C  0.77647045  0.50376854  0.23995401     0.09600
C1248       C  0.79454335  0.45373242  0.19978612     0.35500
C1249       C  0.72098321  0.55147591  0.14997597     0.39000
C1250       C  0.76521462  0.48194525  0.26124926    -0.04600
C1251       C  0.77737624  0.48089318  0.29173573     0.02600
C1252       C  0.79790038  0.50505121  0.30385242    -0.04200
C1253       C  0.80699332  0.52864900  0.28161051    -0.00400
C1254       C  0.79845829  0.52600048  0.24989250    -0.03000
C1255       C  0.74089899  0.46016784  0.25157812     0.36300
C1256       C  0.82201113  0.55791039  0.28969246     0.39900
C1257       C  0.76925117  0.45344243  0.30956110     0.39000
C1258       C  0.81159175  0.54720172  0.22711548     0.36000
C1259       C  0.73679172  0.55116126  0.21414768     0.36600
C1260       C  0.77947923  0.45306181  0.13629790     0.39900
N1261       N  0.76272221  0.43053471  0.32199470    -0.38200
N1262       N  0.72146538  0.44289572  0.24394336    -0.39800
N1263       N  0.83335377  0.58198933  0.29447946    -0.37500
N1264       N  0.82181107  0.56405935  0.20887960    -0.39900
N1265       N  0.80921587  0.43382372  0.20983563    -0.39700
N1266       N  0.78854781  0.43226509  0.12212156    -0.37300
N1267       N  0.70571644  0.57121914  0.14047062    -0.38400
N1268       N  0.72830103  0.57085101  0.23020498    -0.40000
C1269       C  0.65027582  0.47530343  0.37463308    -0.05000
C1270       C  0.67100309  0.50051448  0.38001281     0.09200
C1271       C  0.66203588  0.52496162  0.39940070    -0.02300
C1272       C  0.63380599  0.52329367  0.41540029    -0.00600
C1273       C  0.61255580  0.49778421  0.41064266    -0.04200
C1274       C  0.62099284  0.47400623  0.38964827     0.02800
C1275       C  0.70386190  0.50005307  0.36869938     0.09600
C1276       C  0.68199930  0.55220623  0.40343378     0.35500
C1277       C  0.59975740  0.44839024  0.38315881     0.39000
C1278       C  0.71426642  0.52151488  0.34668157    -0.04600
C1279       C  0.74638939  0.52574346  0.34117668     0.02600
C1280       C  0.76928211  0.50488705  0.35385114    -0.04200
C1281       C  0.75696718  0.48118789  0.37439858    -0.00400
C1282       C  0.72531456  0.48074303  0.38322247    -0.03000
C1283       C  0.69159863  0.54022191  0.33038514     0.36300
C1284       C  0.77420007  0.45491702  0.38550693     0.39900
C1285       C  0.75511315  0.55354059  0.32421179     0.39000
C1286       C  0.71435958  0.45968265  0.40734211     0.36000
C1287       C  0.65939770  0.45073134  0.35364699     0.36600
C1288       C  0.62819966  0.54789053  0.43789429     0.39900
N1289       N  0.76029356  0.57672198  0.31168861    -0.38200
N1290       N  0.67350191  0.55504036  0.31741775    -0.39800
N1291       N  0.78600398  0.43302379  0.39516136    -0.37500
N1292       N  0.70555679  0.44295481  0.42642544    -0.39900
N1293       N  0.69662595  0.57469420  0.40681402    -0.39700
N1294       N  0.62447061  0.56811355  0.45514625    -0.37300
N1295       N  0.58291792  0.42785120  0.37786805    -0.38400
N1296       N  0.66708433  0.43126546  0.33691141    -0.40000
C1297       C  0.83962256  0.99896192  0.77748453    -0.05000
C1298       C  0.87078207  0.99242893  0.78388072     0.09200
C1299       C  0.89263862  0.99533030  0.75988262    -0.02300
C1300       C  0.88319509  0.00346523  0.72936177    -0.00600
C1301       C  0.85134751  0.01111067  0.72246354    -0.04200
C1302       C  0.83118295  0.01233151  0.74889880     0.02800
C1303       C  0.88165728  0.99043814  0.81708343     0.09600
C1304       C  0.92527806  0.99041208  0.76702313     0.35500
C1305       C  0.80672977  0.03475071  0.75106005     0.39000
C1306       C  0.89268652  0.96261276  0.82990428    -0.04600
C1307       C  0.90681418  0.96247280  0.85975416     0.02600
C1308       C  0.90989208  0.99017579  0.87739099    -0.04200
C1309       C  0.89811704  0.01811733  0.86413372    -0.00400
C1310       C  0.88364817  0.01789200  0.83475591    -0.03000
C1311       C  0.89045260  0.93425044  0.81183038     0.36300
C1312       C  0.90233422  0.04819006  0.87911189     0.39900
C1313       C  0.92112665  0.93437230  0.87039197     0.39000
C1314       C  0.87175799  0.04664122  0.82212888     0.36000
C1315       C  0.81640050  0.99404520  0.80141116     0.36600
C1316       C  0.90759411  0.00514531  0.70641580     0.39900
N1317       N  0.93283715  0.91165463  0.87788315    -0.38200
N1318       N  0.88882073  0.91154368  0.79748770    -0.39800
N1319       N  0.90592086  0.07263966  0.88983235    -0.37500
N1320       N  0.86212378  0.06965742  0.81262191    -0.39900
N1321       N  0.95118017  0.98650240  0.77304990    -0.39700
N1322       N  0.92914542  0.00562419  0.69042556    -0.37300
N1323       N  0.78825977  0.05351901  0.75523278    -0.38400
N1324       N  0.79787396  0.98966330  0.82035828    -0.40000
C1325       C  0.94222740  0.00681395  0.18776397    -0.05000
C1326       C  0.91404583  0.99045484  0.19339840     0.09200
C1327       C  0.90175930  0.97055398  0.16995677    -0.02300
C1328       C  0.91492000  0.97057796  0.14006522    -0.00600
C1329       C  0.94255134  0.98754144  0.13444555    -0.04200
C1330       C  0.95731607  0.00368413  0.15897366     0.02800
C1331       C  0.89605125  0.99559816  0.22282187     0.09600
C1332       C  0.87513516  0.95057649  0.17636626     0.35500
C1333       C  0.98782991  0.01749178  0.15446388     0.39000
C1334       C  0.86564418  0.00687142  0.22123018    -0.04600
C1335       C  0.84640286  0.00592193  0.24755352     0.02600
C1336       C  0.85961066  0.00486296  0.27837023    -0.04200
C1337       C  0.89178459  0.99515450  0.27946346    -0.00400
C1338       C  0.90829300  0.98789390  0.25203301    -0.03000
C1339       C  0.85320992  0.01779441  0.19182525     0.36300
C1340       C  0.90940031  0.99412322  0.30829202     0.39900
C1341       C  0.81397820  0.99992867  0.24036680     0.39000
C1342       C  0.93805169  0.97248057  0.25392512     0.36000
C1343       C  0.95503745  0.02816992  0.21071031     0.36600
C1344       C  0.90018534  0.95304405  0.11506726     0.39900
N1345       N  0.78863746  0.99455754  0.23271470    -0.38200
N1346       N  0.84322568  0.02640482  0.16846324    -0.39800
N1347       N  0.92425949  0.99407045  0.33075120    -0.37500
N1348       N  0.96168224  0.96003351  0.25536987    -0.39900
N1349       N  0.85386100  0.93468457  0.18144235    -0.39700
N1350       N  0.88879802  0.93889687  0.09505308    -0.37300
N1351       N  0.01241784  0.02817607  0.15135536    -0.38400
N1352       N  0.96560770  0.04535464  0.22869156    -0.40000
C1353       C  0.22036807  0.49417850  0.73735432    -0.05000
C1354       C  0.20934706  0.51596915  0.75863787     0.09200
C1355       C  0.19065787  0.54009772  0.74770653    -0.02300
C1356       C  0.18290786  0.54276969  0.71562121    -0.00600
C1357       C  0.19316325  0.52011115  0.69297291    -0.04200
C1358       C  0.21304096  0.49619608  0.70530899     0.02800
C1359       C  0.21691739  0.51290960  0.79287576     0.09600
C1360       C  0.18032044  0.56324350  0.76988426     0.35500
C1361       C  0.22516287  0.47153343  0.68606951     0.39000
C1362       C  0.24760011  0.51798010  0.80420359    -0.04600
C1363       C  0.25463880  0.51344787  0.83602253     0.02600
C1364       C  0.23064714  0.50680157  0.85733407    -0.04200
C1365       C  0.20020892  0.50119074  0.84597482    -0.00400
C1366       C  0.19358849  0.50331045  0.81389898    -0.03000
C1367       C  0.27190751  0.52806187  0.78316829     0.36300
C1368       C  0.17542790  0.49355518  0.86734749     0.39900
C1369       C  0.28672007  0.51352373  0.84652821     0.39000
C1370       C  0.16276596  0.49515114  0.80243458     0.36000
C1371       C  0.23875126  0.46858922  0.74892842     0.36600
C1372       C  0.16752109  0.57131248  0.70732320     0.39900
N1373       N  0.31233366  0.51290620  0.85487047    -0.38200
N1374       N  0.29129765  0.53619943  0.76639298    -0.39800
N1375       N  0.15537074  0.48761362  0.88416262    -0.37500
N1376       N  0.13821766  0.48846180  0.79329905    -0.39900
N1377       N  0.17218340  0.58160679  0.78761730    -0.39700
N1378       N  0.15585333  0.59479223  0.70215031    -0.37300
N1379       N  0.23568077  0.45061089  0.67315122    -0.38400
N1380       N  0.25336473  0.44831243  0.75830661    -0.40000
C1381       C  0.33029861  0.56001612  0.59336840    -0.05000
C1382       C  0.31780851  0.53285639  0.60711063     0.09200
C1383       C  0.33632594  0.50632348  0.60939189    -0.02300
C1384       C  0.36539958  0.50545257  0.59473794    -0.00600
C1385       C  0.37770645  0.53217411  0.57950254    -0.04200
C1386       C  0.36054784  0.55998433  0.58049233     0.02800
C1387       C  0.28497872  0.53122113  0.61873367     0.09600
C1388       C  0.32522829  0.47951904  0.62672004     0.35500
C1389       C  0.37333586  0.58845158  0.56768763     0.39000
C1390       C  0.26354776  0.51050969  0.60488055    -0.04600
C1391       C  0.23502279  0.50350268  0.61944375     0.02600
C1392       C  0.22282497  0.52371928  0.64306875    -0.04200
C1393       C  0.24514131  0.54584068  0.65604232    -0.00400
C1394       C  0.27619274  0.54757727  0.64533611    -0.03000
C1395       C  0.27111961  0.49566436  0.57557003     0.36300
C1396       C  0.23671746  0.56955825  0.67829511     0.39900
C1397       C  0.22204670  0.47320057  0.61181755     0.39000
C1398       C  0.29895898  0.56752777  0.66091938     0.36000
C1399       C  0.31197904  0.58796238  0.59215707     0.36600
C1400       C  0.38182459  0.47626516  0.59494098     0.39900
N1401       N  0.21311816  0.44851924  0.60546214    -0.38200
N1402       N  0.27661318  0.48398944  0.55204281    -0.39800
N1403       N  0.23236666  0.58964097  0.69556351    -0.37500
N1404       N  0.31706277  0.58361348  0.67306274    -0.39900
N1405       N  0.31657025  0.45813595  0.64052070    -0.39700
N1406       N  0.39405095  0.45254517  0.59488862    -0.37300
N1407       N  0.38344494  0.61145792  0.55801811    -0.38400
N1408       N  0.29770913  0.61050225  0.59148064    -0.40000
C1409       C  0.79284086  0.52345517  0.80946342    -0.05000
C1410       C  0.77153793  0.51300673  0.78662330     0.09200
C1411       C  0.74313627  0.49903758  0.79589407    -0.02300
C1412       C  0.73584553  0.49618389  0.82773579    -0.00600
C1413       C  0.75640929  0.50829251  0.85051544    -0.04200
C1414       C  0.78566615  0.52023483  0.84121153     0.02800
C1415       C  0.78061614  0.51294664  0.75295048     0.09600
C1416       C  0.72179160  0.48686214  0.77255938     0.35500
C1417       C  0.81002231  0.52488269  0.86414720     0.39000
C1418       C  0.79445658  0.48670961  0.74017521    -0.04600
C1419       C  0.80058875  0.48473317  0.70796074     0.02600
C1420       C  0.79679948  0.51128887  0.68761292    -0.04200
C1421       C  0.78106284  0.53727142  0.70158420    -0.00400
C1422       C  0.77363890  0.53795749  0.73368973    -0.03000
C1423       C  0.80133807  0.46082035  0.76057651     0.36300
C1424       C  0.77306754  0.56475037  0.68422984     0.39900
C1425       C  0.80633816  0.45343553  0.69699007     0.39000
C1426       C  0.75954501  0.56513965  0.74751563     0.36000
C1427       C  0.82267152  0.53652845  0.80036661     0.36600
C1428       C  0.70852822  0.47855847  0.83692228     0.39900
N1429       N  0.81022955  0.42800011  0.68938656    -0.38200
N1430       N  0.80675181  0.44036558  0.77694498    -0.39800
N1431       N  0.76570632  0.58778309  0.67285516    -0.37500
N1432       N  0.74858214  0.58680119  0.75873330    -0.39900
N1433       N  0.70481825  0.47713184  0.75389725    -0.39700
N1434       N  0.68729817  0.46335989  0.84379539    -0.37300
N1435       N  0.82999514  0.52722150  0.88208908    -0.38400
N1436       N  0.84655757  0.54703800  0.79346376    -0.40000
C1437       C  0.71800072  0.50359867  0.62147183    -0.05000
C1438       C  0.71697557  0.52527732  0.59736468     0.09200
C1439       C  0.74193330  0.54575837  0.59321520    -0.02300
C1440       C  0.76844668  0.54425251  0.61251605    -0.00600
C1441       C  0.77306702  0.51857093  0.63366030    -0.04200
C1442       C  0.74529427  0.50032999  0.63976251     0.02800
C1443       C  0.68795997  0.52937494  0.57868287     0.09600
C1444       C  0.73939950  0.56988060  0.56977398     0.35500
C1445       C  0.74405047  0.47621596  0.66305760     0.39000
C1446       C  0.66347073  0.54678970  0.59116112    -0.04600
C1447       C  0.63574838  0.55033832  0.57417201     0.02600
C1448       C  0.63220559  0.53621047  0.54469937    -0.04200
C1449       C  0.65741547  0.52038502  0.53143775    -0.00400
C1450       C  0.68532718  0.51704665  0.54836795    -0.03000
C1451       C  0.66660319  0.56026585  0.62195211     0.36300
C1452       C  0.65399439  0.50559535  0.50137311     0.39900
C1453       C  0.61045090  0.56785870  0.58742626     0.39000
C1454       C  0.71085366  0.49995849  0.53501594     0.36000
C1455       C  0.69126481  0.48312713  0.62609067     0.36600
C1456       C  0.78758000  0.57208469  0.61199476     0.39900
N1457       N  0.59046810  0.58203132  0.59808291    -0.38200
N1458       N  0.66930836  0.57073026  0.64660056    -0.39800
N1459       N  0.65169277  0.49325249  0.47758618    -0.37500
N1460       N  0.73100310  0.48627841  0.52400436    -0.39900
N1461       N  0.73734072  0.58909908  0.55124517    -0.39700
N1462       N  0.80144330  0.59516241  0.61041404    -0.37300
N1463       N  0.74043297  0.45662468  0.68101581    -0.38400
N1464       N  0.67005793  0.46669747  0.62955076    -0.40000
C1465       C  0.98672390  0.27560188  0.23229126    -0.05000
C1466       C  0.99285166  0.29900892  0.25407833     0.09200
C1467       C  0.00095951  0.32872602  0.24312334    -0.02300
C1468       C  0.00002750  0.33564232  0.21070133    -0.00600
C1469       C  0.99292097  0.31196396  0.18777458    -0.04200
C1470       C  0.99198715  0.28090003  0.20048654     0.02800
C1471       C  0.99284916  0.29146918  0.28839301     0.09600
C1472       C  0.00983324  0.35244286  0.26561827     0.35500
C1473       C  0.00454479  0.25428437  0.18445075     0.39000
C1474       C  0.01645137  0.27298483  0.30146076    -0.04600
C1475       C  0.01542132  0.26429714  0.33317079     0.02600
C1476       C  0.99172556  0.27556315  0.35297978    -0.04200
C1477       C  0.96810233  0.29413113  0.33958783    -0.00400
C1478       C  0.96859921  0.30165923  0.30764511    -0.03000
C1479       C  0.04252842  0.26377149  0.28243834     0.36300
C1480       C  0.94330751  0.30660935  0.35837389     0.39900
C1481       C  0.03897281  0.24376747  0.34529536     0.39000
C1482       C  0.94404360  0.32043183  0.29476284     0.36000
C1483       C  0.97655541  0.24511998  0.24272759     0.36600
C1484       C  0.00704365  0.36742896  0.20245845     0.39900
N1485       N  0.05772288  0.22742644  0.35508301    -0.38200
N1486       N  0.06350060  0.25665809  0.26737664    -0.39800
N1487       N  0.92295281  0.31682732  0.37238085    -0.37500
N1488       N  0.92418037  0.33561320  0.28535726    -0.39900
N1489       N  0.01688013  0.37118257  0.28371395    -0.39700
N1490       N  0.01353682  0.39326208  0.19865449    -0.37300
N1491       N  0.01577929  0.23290479  0.17298404    -0.22400
N1492       N  0.96809066  0.22095951  0.25101673    -0.40000
C1493       C  0.00812284  0.30863964  0.68991254    -0.05000
C1494       C  0.99413837  0.28721454  0.71034588     0.09200
C1495       C  0.98212689  0.25885925  0.69835458    -0.02300
C1496       C  0.98424817  0.25206288  0.66622424    -0.00600
C1497       C  0.99814315  0.27368730  0.64579092    -0.04200
C1498       C  0.01044522  0.30176745  0.65798781     0.02800
C1499       C  0.99329509  0.29418788  0.74464604     0.09600
C1500       C  0.96726174  0.23683276  0.71903395     0.35500
C1501       C  0.02502005  0.32425159  0.63772476     0.39000
C1502       C  0.96826999  0.30984443  0.75774334    -0.04600
C1503       C  0.96616579  0.31386741  0.79033138     0.02600
C1504       C  0.99297844  0.30963996  0.81051851    -0.04200
C1505       C  0.01878912  0.29425886  0.79571691    -0.00400
C1506       C  0.01785484  0.28534370  0.76391716    -0.03000
C1507       C  0.94422922  0.32178650  0.73740802     0.36300
C1508       C  0.04780502  0.28795088  0.81137802     0.39900
C1509       C  0.93470450  0.31831545  0.80148088     0.39000
C1510       C  0.04298009  0.26757000  0.75040210     0.36000
C1511       C  0.01950624  0.33831325  0.70151978     0.36600
C1512       C  0.97323646  0.22235320  0.65432194     0.39900
N1513       N  0.90917744  0.32121990  0.80934436    -0.38200
N1514       N  0.92542131  0.33193174  0.72122476    -0.39800
N1515       N  0.07234198  0.28172833  0.82033357    -0.37500
N1516       N  0.06281797  0.25326923  0.73962286    -0.39900
N1517       N  0.95520180  0.21922211  0.73539840    -0.39700
N1518       N  0.96475499  0.19857071  0.64476351    -0.37300
N1519       N  0.03695577  0.34269612  0.62230827    -0.38400
N1520       N  0.02846942  0.36229817  0.71005041    -0.40000
C1521       C  0.87015274  0.38255637  0.40857085    -0.05000
C1522       C  0.88487275  0.40785150  0.39380851     0.09200
C1523       C  0.91746049  0.41143769  0.39555978    -0.02300
C1524       C  0.93520313  0.39045924  0.41306993    -0.00600
C1525       C  0.92035507  0.36560234  0.42877381    -0.04200
C1526       C  0.88764895  0.36205876  0.42672548     0.02800
C1527       C  0.86569238  0.43264397  0.37943684     0.09600
C1528       C  0.93263790  0.43657960  0.37891332     0.35500
C1529       C  0.87164960  0.33828625  0.44461158     0.39000
C1530       C  0.85637862  0.45765513  0.39765476    -0.04600
C1531       C  0.83585506  0.47988809  0.38564079     0.02600
C1532       C  0.82577416  0.47925461  0.35343868    -0.04200
C1533       C  0.83933155  0.45507257  0.33453461    -0.00400
C1534       C  0.85726294  0.43130072  0.34810157    -0.03000
C1535       C  0.86748214  0.45991977  0.42959333     0.36300
C1536       C  0.83852102  0.45463856  0.30090167     0.39900
C1537       C  0.82336915  0.50108561  0.40852670     0.39000
C1538       C  0.86836618  0.40558905  0.32946374     0.36000
C1539       C  0.83705136  0.37704098  0.40454178     0.36600
C1540       C  0.96865821  0.39462904  0.41466634     0.39900
N1541       N  0.81451597  0.51609599  0.42889590    -0.38200
N1542       N  0.87651569  0.46172449  0.45488371    -0.39800
N1543       N  0.83917665  0.45339589  0.27406452    -0.37500
N1544       N  0.87727093  0.38508149  0.31474107    -0.39900
N1545       N  0.94462600  0.45650596  0.36535764    -0.39700
N1546       N  0.99529081  0.39864346  0.41580522    -0.37300
N1547       N  0.85877187  0.31960563  0.45908972    -0.38400
N1548       N  0.81082575  0.37158765  0.40117825    -0.40000
C1549       C  0.88688247  0.37863126  0.61741216    -0.05000
C1550       C  0.87929630  0.40634129  0.60206264     0.09200
C1551       C  0.89076284  0.41202731  0.57200474    -0.02300
C1552       C  0.90877629  0.38968259  0.55684772    -0.00600
C1553       C  0.91795921  0.36254675  0.57268761    -0.04200
C1554       C  0.90709815  0.35733213  0.60333101     0.02800
C1555       C  0.85875755  0.42966873  0.61712616     0.09600
C1556       C  0.88356310  0.44083813  0.55637804     0.35500
C1557       C  0.91694970  0.33043038  0.62078535     0.39000
C1558       C  0.87065112  0.44932118  0.64023479    -0.04600
C1559       C  0.85242063  0.47336069  0.65250240     0.02600
C1560       C  0.82149879  0.47970679  0.64076257    -0.04200
C1561       C  0.80966064  0.45791075  0.61767404    -0.00400
C1562       C  0.82824017  0.43337099  0.60652886    -0.03000
C1563       C  0.90250302  0.44522399  0.65083978     0.36300
C1564       C  0.78022456  0.46050525  0.60163879     0.39900
C1565       C  0.86596971  0.49012825  0.67864607     0.39000
C1566       C  0.81676109  0.41275882  0.58197819     0.36000
C1567       C  0.87327888  0.37174576  0.64740665     0.36600
C1568       C  0.91589437  0.39406796  0.52426509     0.39900
N1569       N  0.87810225  0.50157860  0.69989059    -0.38200
N1570       N  0.92786853  0.44192415  0.65915346    -0.39800
N1571       N  0.75789356  0.46033979  0.58653293    -0.37500
N1572       N  0.80793232  0.39680857  0.56205481    -0.39900
N1573       N  0.87788468  0.46373971  0.54380592    -0.39700
N1574       N  0.92090708  0.39797548  0.49821171    -0.37300
N1575       N  0.92473817  0.30904945  0.63482287    -0.38400
N1576       N  0.86222141  0.36604314  0.67118657    -0.40000
C1577       C  0.07837640  0.42353474  0.59185624    -0.05000
C1578       C  0.11023839  0.41922451  0.59811278     0.09200
C1579       C  0.12398213  0.39087955  0.58993760    -0.02300
C1580       C  0.10620123  0.36715049  0.57516953    -0.00600
C1581       C  0.07397113  0.37111938  0.56896100    -0.04200
C1582       C  0.06018357  0.39953463  0.57804024     0.02800
C1583       C  0.12945977  0.44480541  0.61308762     0.09600
C1584       C  0.15670888  0.38622159  0.59654658     0.35500
C1585       C  0.02690254  0.40373740  0.57488309     0.39000
C1586       C  0.13541174  0.44468368  0.64506765    -0.04600
C1587       C  0.15342293  0.46867493  0.65951371     0.02600
C1588       C  0.16760279  0.49354438  0.64157098    -0.04200
C1589       C  0.15933823  0.49341210  0.60880650    -0.00400
C1590       C  0.14073444  0.46950383  0.59527225    -0.03000
C1591       C  0.12120851  0.42016225  0.66355578     0.36300
C1592       C  0.17137559  0.51628745  0.58716053     0.39900
C1593       C  0.15367674  0.46753385  0.69312861     0.39000
C1594       C  0.13311879  0.47002900  0.56233457     0.36000
C1595       C  0.06439965  0.45295298  0.59970502     0.36600
C1596       C  0.12173380  0.33901060  0.56589599     0.39900
N1597       N  0.15245411  0.46535175  0.71987909    -0.38200
N1598       N  0.10967269  0.40084356  0.67830534    -0.39800
N1599       N  0.18019540  0.53292557  0.56800432    -0.37500
N1600       N  0.12676353  0.47032736  0.53621440    -0.39900
N1601       N  0.18275690  0.38229292  0.60188392    -0.39700
N1602       N  0.13467501  0.31676980  0.55879250    -0.37300
N1603       N  0.00031739  0.40710580  0.57276391    -0.38400
N1604       N  0.05366862  0.47665123  0.60582273    -0.40000
C1605       C  0.08015647  0.39310571  0.37621503    -0.05000
C1606       C  0.09176694  0.41900976  0.39253695     0.09200
C1607       C  0.08655850  0.42201357  0.42464002    -0.02300
C1608       C  0.07231764  0.39767025  0.44101553    -0.00600
C1609       C  0.06194069  0.37068713  0.42503636    -0.04200
C1610       C  0.06488142  0.36914342  0.39236677     0.02800
C1611       C  0.11502892  0.43981744  0.37783448     0.09600
C1612       C  0.09753772  0.44955466  0.44109210     0.35500
C1613       C  0.05195177  0.34339602  0.37491856     0.39000
C1614       C  0.10605013  0.46556469  0.36070688    -0.04600
C1615       C  0.12871088  0.48685961  0.34981274     0.02600
C1616       C  0.16110027  0.48461056  0.35892283    -0.04200
C1617       C  0.16825090  0.45881198  0.37923035    -0.00400
C1618       C  0.14629329  0.43512178  0.38467832    -0.03000
C1619       C  0.07321579  0.46971314  0.35403246     0.36300
C1620       C  0.19446122  0.45743544  0.40040482     0.39900
C1621       C  0.11776655  0.50981678  0.32797183     0.39000
C1622       C  0.15523249  0.40680235  0.40073083     0.36000
C1623       C  0.08495468  0.39072570  0.34296538     0.36600
C1624       C  0.07020077  0.40002022  0.47451832     0.39900
N1625       N  0.10721847  0.52677934  0.31018785    -0.38200
N1626       N  0.04698929  0.47272822  0.34890919    -0.39800
N1627       N  0.21370678  0.45480554  0.41903281    -0.37500
N1628       N  0.16217720  0.38444304  0.41364034    -0.39900
N1629       N  0.10622611  0.47142636  0.45433221    -0.39700
N1630       N  0.06891404  0.40258692  0.50119842    -0.37300
N1631       N  0.04200347  0.32346435  0.35977128    -0.38400
N1632       N  0.08872451  0.38885044  0.31645447    -0.40000
C1633       C  0.10616589  0.15099924  0.61653165    -0.05000
C1634       C  0.10567626  0.11947074  0.60782129     0.09200
C1635       C  0.08994731  0.11026683  0.58041031    -0.02300
C1636       C  0.07491808  0.13248220  0.56187342    -0.00600
C1637       C  0.07251256  0.16371538  0.57236673    -0.04200
C1638       C  0.08736197  0.17224671  0.60079173     0.02800
C1639       C  0.11874872  0.09569988  0.62939290     0.09600
C1640       C  0.08871901  0.07774288  0.57153557     0.35500
C1641       C  0.08132286  0.20172039  0.61588421     0.39000
C1642       C  0.10681378  0.09283867  0.65950040    -0.04600
C1643       C  0.11976227  0.07173434  0.68067169     0.02600
C1644       C  0.14007999  0.04758956  0.67017796    -0.04200
C1645       C  0.15198009  0.05127772  0.63904975    -0.00400
C1646       C  0.14295426  0.07635653  0.62014991    -0.03000
C1647       C  0.08031360  0.11140930  0.66878358     0.36300
C1648       C  0.17551448  0.03118433  0.62630583     0.39900
C1649       C  0.11143691  0.07713833  0.71258670     0.39000
C1650       C  0.15886408  0.08259451  0.59107181     0.36000
C1651       C  0.12534556  0.16141397  0.64250321     0.36600
C1652       C  0.06184223  0.12259649  0.53227505     0.39900
N1653       N  0.10362531  0.08418818  0.73723292    -0.38200
N1654       N  0.05934925  0.12614045  0.67635893    -0.39800
N1655       N  0.19481594  0.01703063  0.61442161    -0.37500
N1656       N  0.17161519  0.08768834  0.56800776    -0.39900
N1657       N  0.08803268  0.05180754  0.56452373    -0.39700
N1658       N  0.05146457  0.11451473  0.50871909    -0.37300
N1659       N  0.07629818  0.22496072  0.62829372    -0.38400
N1660       N  0.14063185  0.16965718  0.66319411    -0.40000
C1661       C  0.85435831  0.07491168  0.62186817    -0.05000
C1662       C  0.87509934  0.09639547  0.63594855     0.09200
C1663       C  0.87890255  0.09562534  0.66836386    -0.02300
C1664       C  0.86665461  0.07056919  0.68601198    -0.00600
C1665       C  0.84951771  0.04564536  0.67124237    -0.04200
C1666       C  0.84040245  0.05090205  0.63947690     0.02800
C1667       C  0.89320307  0.11934241  0.61644777     0.09600
C1668       C  0.89450108  0.12165649  0.68367142     0.35500
C1669       C  0.81841203  0.03022300  0.62374109     0.39000
C1670       C  0.87741999  0.14114734  0.59803524    -0.04600
C1671       C  0.89368731  0.15849622  0.57558668     0.02600
C1672       C  0.92646712  0.15811108  0.57446001    -0.04200
C1673       C  0.94268917  0.13781818  0.59417019    -0.00400
C1674       C  0.92613241  0.11801431  0.61458092    -0.03000
C1675       C  0.84459045  0.14668975  0.60293494     0.36300
C1676       C  0.97642281  0.13774017  0.59408665     0.39900
C1677       C  0.87644008  0.17459035  0.55183336     0.39000
C1678       C  0.94329079  0.09708603  0.63433316     0.36000
C1679       C  0.84888490  0.07609389  0.58860408     0.36600
C1680       C  0.86905870  0.07359836  0.71935579     0.39900
N1681       N  0.86241910  0.18610756  0.53217583    -0.38200
N1682       N  0.81852100  0.15156692  0.60701926    -0.39800
N1683       N  0.00332905  0.13748280  0.59440150    -0.37500
N1684       N  0.95726645  0.08084148  0.65033711    -0.39900
N1685       N  0.90667697  0.14256850  0.69576466    -0.39700
N1686       N  0.87131253  0.07742862  0.74585056    -0.37300
N1687       N  0.80088457  0.01402205  0.61093125    -0.38400
N1688       N  0.84445279  0.07720178  0.56212610    -0.40000
C1689       C  0.90477805  0.14403603  0.37125453    -0.05000
C1690       C  0.89746078  0.11475942  0.38393414     0.09200
C1691       C  0.90433787  0.10872508  0.41532270    -0.02300
C1692       C  0.91751943  0.13215323  0.43430592    -0.00600
C1693       C  0.92584220  0.16126441  0.42151228    -0.04200
C1694       C  0.91969843  0.16690760  0.38962828     0.02800
C1695       C  0.88198520  0.09051876  0.36412897     0.09600
C1696       C  0.89843184  0.07818428  0.42807015     0.35500
C1697       C  0.92966189  0.19563468  0.37501730     0.39000
C1698       C  0.89884391  0.07528013  0.34113017    -0.04600
C1699       C  0.88305765  0.05699304  0.31897541     0.02600
C1700       C  0.85319725  0.04352708  0.32589045    -0.04200
C1701       C  0.83545893  0.06109146  0.34830501    -0.00400
C1702       C  0.84977683  0.08525405  0.36596064    -0.03000
C1703       C  0.93231485  0.07961005  0.33916668     0.36300
C1704       C  0.80305941  0.05452511  0.35547701     0.39900
C1705       C  0.89370885  0.06129922  0.28741417     0.39000
C1706       C  0.83161083  0.10416891  0.38698623     0.36000
C1707       C  0.89684000  0.15064692  0.33917671     0.36600
C1708       C  0.92144906  0.12649031  0.46726614     0.39900
N1709       N  0.90242521  0.06589262  0.26245006    -0.38200
N1710       N  0.95908089  0.08264949  0.33813915    -0.39800
N1711       N  0.77730311  0.05038076  0.36224795    -0.37500
N1712       N  0.81727536  0.11942726  0.40364132    -0.39900
N1713       N  0.89429586  0.05388977  0.43868427    -0.39700
N1714       N  0.92445205  0.12212311  0.49358237    -0.37300
N1715       N  0.93744325  0.21828741  0.36282251    -0.38400
N1716       N  0.89046330  0.15599780  0.31365300    -0.40000
C1717       C  0.06839807  0.11635898  0.39082375    -0.05000
C1718       C  0.10119417  0.11691289  0.38934916     0.09200
C1719       C  0.11814078  0.13979306  0.40592992    -0.02300
C1720       C  0.10233168  0.16203283  0.42379358    -0.00600
C1721       C  0.06945607  0.16254590  0.42404943    -0.04200
C1722       C  0.05259921  0.13959694  0.40727895     0.02800
C1723       C  0.11754930  0.09449505  0.36858846     0.09600
C1724       C  0.15186875  0.14049474  0.40447287     0.35500
C1725       C  0.01898520  0.14059446  0.40550538     0.39000
C1726       C  0.11564283  0.09803689  0.33643909    -0.04600
C1727       C  0.12596857  0.07442864  0.31616779     0.02600
C1728       C  0.14317745  0.04799979  0.32768626    -0.04200
C1729       C  0.14779477  0.04757671  0.36104674    -0.00400
C1730       C  0.13344511  0.06929065  0.38085822    -0.03000
C1731       C  0.10067231  0.12563192  0.32427035     0.36300
C1732       C  0.16839589  0.02590316  0.37615370     0.39900
C1733       C  0.11421797  0.07771563  0.28487738     0.39000
C1734       C  0.13457254  0.06553518  0.41435349     0.36000
C1735       C  0.05084759  0.09183424  0.37525773     0.36600
C1736       C  0.12010278  0.18333268  0.44302452     0.39900
N1737       N  0.10299859  0.08240647  0.26091938    -0.38200
N1738       N  0.08856130  0.14742498  0.31470898    -0.39800
N1739       N  0.18500539  0.01023585  0.39006897    -0.37500
N1740       N  0.13516415  0.06271466  0.44104293    -0.39900
N1741       N  0.17876496  0.14098561  0.40335843    -0.39700
N1742       N  0.13493582  0.19956698  0.45868469    -0.37300
N1743       N  0.99218851  0.14107405  0.40333384    -0.38400
N1744       N  0.03668349  0.07225493  0.36308177    -0.40000
C1745       C  0.01911274  0.72619942  0.30439987    -0.05000
C1746       C  0.99329461  0.73292174  0.28543519     0.09200
C1747       C  0.96799045  0.74896258  0.29848164    -0.02300
C1748       C  0.96902031  0.75918188  0.32973903    -0.00600
C1749       C  0.99397843  0.75068962  0.34948195    -0.04200
C1750       C  0.01903038  0.73394466  0.33628983     0.02800
C1751       C  0.99240985  0.72296194  0.25181392     0.09600
C1752       C  0.94029196  0.75400894  0.27990362     0.35500
C1753       C  0.04465837  0.72329536  0.35526844     0.39000
C1754       C  0.98947042  0.69146280  0.24348729    -0.04600
C1755       C  0.98901276  0.68224203  0.21171675     0.02600
C1756       C  0.98842878  0.70487956  0.18712469    -0.04200
C1757       C  0.98403943  0.73628289  0.19763728    -0.00400
C1758       C  0.99140005  0.74521973  0.22825126    -0.03000
C1759       C  0.98721187  0.66840430  0.26790034     0.36300
C1760       C  0.96474205  0.75796092  0.18098208     0.39900
C1761       C  0.98895068  0.64921150  0.20581904     0.39000
C1762       C  0.99650325  0.77778571  0.23559742     0.36000
C1763       C  0.04589281  0.71075948  0.29140495     0.36600
C1764       C  0.94470426  0.77926910  0.34100118     0.39900
N1765       N  0.98843718  0.62243929  0.20395381    -0.38200
N1766       N  0.98540570  0.65017803  0.28747057    -0.39800
N1767       N  0.94811543  0.77481176  0.16861160    -0.37500
N1768       N  0.00095755  0.80371586  0.24130072    -0.39900
N1769       N  0.91823968  0.75768120  0.26494483    -0.39700
N1770       N  0.92528675  0.79548297  0.34958727    -0.37300
N1771       N  0.06558296  0.71444548  0.36949143    -0.38400
N1772       N  0.06764434  0.69835760  0.28204738    -0.40000
C1773       C  0.00530259  0.70760631  0.68068155    -0.05000
C1774       C  0.99783706  0.72879312  0.70442265     0.09200
C1775       C  0.98827025  0.75897820  0.69636788    -0.02300
C1776       C  0.98688960  0.76806178  0.66482851    -0.00600
C1777       C  0.99448084  0.74681528  0.64110478    -0.04200
C1778       C  0.00260567  0.71624408  0.64924995     0.02800
C1779       C  0.99874975  0.71879100  0.73790131     0.09600
C1780       C  0.97945807  0.78048851  0.72062986     0.35500
C1781       C  0.00623948  0.69296729  0.62526659     0.39000
C1782       C  0.02319448  0.72836229  0.75734657    -0.04600
C1783       C  0.02355616  0.72019682  0.78916076     0.02600
C1784       C  0.99904841  0.70139394  0.80300591    -0.04200
C1785       C  0.97438088  0.69161904  0.78183196    -0.00400
C1786       C  0.97493846  0.69993228  0.74995062    -0.03000
C1787       C  0.04864857  0.74643395  0.74410360     0.36300
C1788       C  0.94586131  0.67616619  0.79142428     0.39900
C1789       C  0.05067066  0.73074082  0.80668323     0.39000
C1790       C  0.94980700  0.69012897  0.72921416     0.36000
C1791       C  0.01569046  0.67678564  0.68868226     0.36600
C1792       C  0.97739039  0.79912077  0.65687306     0.39900
N1793       N  0.07325057  0.73957396  0.81869762    -0.38200
N1794       N  0.06892305  0.76069380  0.73344474    -0.39800
N1795       N  0.92226634  0.66431872  0.79726986    -0.37500
N1796       N  0.92987116  0.68238180  0.71267801    -0.39900
N1797       N  0.97240896  0.79750572  0.74011660    -0.39700
N1798       N  0.96974537  0.82398932  0.65082315    -0.37300
N1799       N  0.00860859  0.67407805  0.60634583    -0.38400
N1800       N  0.02405683  0.65225135  0.69515050    -0.40000
C1801       C  0.14273510  0.59379017  0.35424272    -0.05000
C1802       C  0.13133078  0.59333936  0.38456989     0.09200
C1803       C  0.13855139  0.56857313  0.40393682    -0.02300
C1804       C  0.15697943  0.54387189  0.39316951    -0.00600
C1805       C  0.16798317  0.54228678  0.36139702    -0.04200
C1806       C  0.15911451  0.56814462  0.34199446     0.02800
C1807       C  0.11106509  0.61880862  0.39648276     0.09600
C1808       C  0.12750519  0.56920146  0.43584916     0.35500
C1809       C  0.16229773  0.56841896  0.30863819     0.39000
C1810       C  0.07845063  0.61684255  0.39260166    -0.04600
C1811       C  0.05903422  0.63877457  0.40706869     0.02600
C1812       C  0.07226580  0.66315055  0.42510719    -0.04200
C1813       C  0.10493645  0.66506207  0.42869698    -0.00400
C1814       C  0.12420820  0.64311371  0.41435455    -0.03000
C1815       C  0.06498825  0.59173768  0.37423597     0.36300
C1816       C  0.11872164  0.68839562  0.44896461     0.39900
C1817       C  0.02552026  0.63596721  0.40361056     0.39000
C1818       C  0.15763159  0.64490721  0.41883264     0.36000
C1819       C  0.13685841  0.62095558  0.33530875     0.36600
C1820       C  0.16556965  0.52166330  0.41673609     0.39900
N1821       N  0.99879969  0.63339668  0.40095995    -0.38200
N1822       N  0.05451256  0.57162738  0.35951699    -0.39800
N1823       N  0.12976493  0.70680649  0.46534487    -0.37500
N1824       N  0.18427938  0.64637995  0.42255934    -0.39900
N1825       N  0.11883190  0.57003466  0.46122376    -0.39700
N1826       N  0.17139599  0.50634863  0.43790321    -0.37300
N1827       N  0.16302592  0.56963964  0.28184623    -0.38400
N1828       N  0.13238636  0.64275606  0.32046026    -0.40000
C1829       C  0.09999487  0.64773683  0.61428555    -0.05000
C1830       C  0.10635966  0.61883443  0.60077168     0.09200
C1831       C  0.09598330  0.61218864  0.57034850    -0.02300
C1832       C  0.07958848  0.63459153  0.55325854    -0.00600
C1833       C  0.07334056  0.66401875  0.56656201    -0.04200
C1834       C  0.08456401  0.67064097  0.59709081     0.02800
C1835       C  0.12722751  0.59678393  0.61731480     0.09600
C1836       C  0.10227578  0.58217197  0.55658979     0.35500
C1837       C  0.08082837  0.70095523  0.61125948     0.39000
C1838       C  0.11507196  0.57343192  0.63625241    -0.04600
C1839       C  0.13498018  0.55200258  0.65084281     0.02600
C1840       C  0.16810811  0.55167139  0.64481001    -0.04200
C1841       C  0.17949341  0.57651669  0.62487016    -0.00400
C1842       C  0.15938252  0.59966209  0.61366036    -0.03000
C1843       C  0.08168424  0.57209228  0.64131832     0.36300
C1844       C  0.20993331  0.57778809  0.61063770     0.39900
C1845       C  0.12035510  0.53120769  0.67296056     0.39000
C1846       C  0.17167502  0.62642904  0.59685619     0.36000
C1847       C  0.10927644  0.65368465  0.64621078     0.36600
C1848       C  0.07072527  0.62765453  0.52139393     0.39900
N1849       N  0.10700865  0.51612843  0.69077962    -0.38200
N1850       N  0.05509406  0.57121859  0.64537183    -0.39800
N1851       N  0.23307925  0.58019695  0.59717314    -0.37500
N1852       N  0.18129933  0.64788979  0.58379916    -0.39900
N1853       N  0.10704173  0.55821381  0.54554132    -0.39700
N1854       N  0.06370528  0.62204601  0.49600419    -0.37300
N1855       N  0.07841756  0.72510188  0.62275130    -0.38400
N1856       N  0.11640087  0.65810443  0.67178779    -0.40000
C1857       C  0.92567157  0.60291215  0.59260943    -0.05000
C1858       C  0.89574044  0.60746664  0.60492090     0.09200
C1859       C  0.88173357  0.63663530  0.60172020    -0.02300
C1860       C  0.89545443  0.65962548  0.58292869    -0.00600
C1861       C  0.92544811  0.65535118  0.57012053    -0.04200
C1862       C  0.94079940  0.62686921  0.57588895     0.02800
C1863       C  0.87721207  0.58082761  0.61808963     0.09600
C1864       C  0.85359377  0.64367588  0.61864081     0.35500
C1865       C  0.97226233  0.62186171  0.56506142     0.39000
C1866       C  0.87051298  0.57937261  0.64982362    -0.04600
C1867       C  0.84815977  0.55783723  0.66151152     0.02600
C1868       C  0.83193139  0.53621908  0.64108243    -0.04200
C1869       C  0.84228028  0.53646755  0.60899425    -0.00400
C1870       C  0.86389143  0.55878977  0.59797112    -0.03000
C1871       C  0.88684994  0.60083143  0.67053644     0.36300
C1872       C  0.82805403  0.51700849  0.58510217     0.39900
C1873       C  0.84401556  0.55899082  0.69478693     0.39000
C1874       C  0.87052229  0.56076760  0.56488683     0.36000
C1875       C  0.94114273  0.57366785  0.59771989     0.36600
C1876       C  0.87729011  0.68666951  0.57535362     0.39900
N1877       N  0.84249491  0.56149328  0.72149822    -0.38200
N1878       N  0.89989831  0.61803678  0.68682296    -0.39800
N1879       N  0.81768514  0.50323717  0.56430105    -0.37500
N1880       N  0.87537505  0.56231519  0.53853517    -0.39900
N1881       N  0.83184955  0.65023633  0.63284261    -0.39700
N1882       N  0.86221006  0.70780193  0.56924064    -0.37300
N1883       N  0.99733960  0.61762204  0.55651380    -0.38400
N1884       N  0.95366328  0.55044926  0.60180697    -0.40000
C1885       C  0.87511026  0.56383803  0.35630590    -0.05000
C1886       C  0.86269412  0.58631912  0.37591909     0.09200
C1887       C  0.83084057  0.58573095  0.38234454    -0.02300
C1888       C  0.81171534  0.56059975  0.37241575    -0.00600
C1889       C  0.82330312  0.53700817  0.35155970    -0.04200
C1890       C  0.85598851  0.53990018  0.34379614     0.02800
C1891       C  0.88351749  0.60983774  0.39153310     0.09600
C1892       C  0.81787062  0.61095497  0.40048027     0.35500
C1893       C  0.87076408  0.51956295  0.32152326     0.39000
C1894       C  0.88991596  0.63843494  0.37724604    -0.04600
C1895       C  0.90780825  0.66138202  0.39288989     0.02600
C1896       C  0.91970600  0.65591631  0.42325445    -0.04200
C1897       C  0.91412604  0.62638320  0.43689520    -0.00400
C1898       C  0.89610742  0.60361437  0.42106866    -0.03000
C1899       C  0.87813121  0.64406091  0.34618357     0.36300
C1900       C  0.92605334  0.61922634  0.46754811     0.39900
C1901       C  0.91429800  0.69027128  0.37697337     0.39000
C1902       C  0.89032444  0.57357961  0.43520131     0.36000
C1903       C  0.90786997  0.56604295  0.34823906     0.36600
C1904       C  0.78236274  0.55818536  0.38861651     0.39900
N1905       N  0.91899983  0.71317917  0.36384056    -0.38200
N1906       N  0.86886395  0.64837570  0.32134517    -0.39800
N1907       N  0.93558147  0.61305607  0.49187655    -0.37500
N1908       N  0.88575900  0.54958141  0.44634585    -0.39900
N1909       N  0.80740724  0.63112409  0.41461500    -0.39700
N1910       N  0.75990323  0.55678909  0.40325802    -0.37300
N1911       N  0.88424060  0.50506262  0.30351455    -0.38400
N1912       N  0.93387810  0.56799680  0.34160373    -0.40000
C1913       C  0.07295479  0.92560522  0.40984522    -0.05000
C1914       C  0.08774109  0.91817835  0.38168392     0.09200
C1915       C  0.08624860  0.88739033  0.37063273    -0.02300
C1916       C  0.07129071  0.86387563  0.38811991    -0.00600
C1917       C  0.05664543  0.87093765  0.41695292    -0.04200
C1918       C  0.05647569  0.90262945  0.42668695     0.02800
C1919       C  0.10454230  0.94296993  0.36333438     0.09600
C1920       C  0.10029244  0.87991588  0.34097647     0.35500
C1921       C  0.03920360  0.91244346  0.45379198     0.39000
C1922       C  0.13699069  0.94244981  0.36010936    -0.04600
C1923       C  0.15301941  0.96500213  0.34200720     0.02600
C1924       C  0.13656877  0.99010252  0.32702818    -0.04200
C1925       C  0.10353301  0.99116570  0.33349494    -0.00400
C1926       C  0.08792964  0.96697359  0.34947018    -0.03000
C1927       C  0.15412654  0.91844446  0.37626970     0.36300
C1928       C  0.08388143  0.01554049  0.32151978     0.39900
C1929       C  0.18662084  0.96223013  0.34238544     0.39000
C1930       C  0.05409819  0.96579059  0.35019274     0.36000
C1931       C  0.07514477  0.95708691  0.42185931     0.36600
C1932       C  0.07034759  0.83269617  0.37528256     0.39900
N1933       N  0.21325141  0.95875688  0.34400081    -0.38200
N1934       N  0.16763257  0.89925167  0.38903620    -0.39800
N1935       N  0.06680730  0.03378328  0.31210239    -0.37500
N1936       N  0.02718848  0.96465671  0.35041310    -0.39900
N1937       N  0.11175755  0.87409751  0.31745072    -0.39700
N1938       N  0.06979353  0.80794525  0.36478809    -0.37300
N1939       N  0.02541974  0.92054294  0.47530545    -0.38400
N1940       N  0.07686797  0.98215528  0.43145821    -0.40000
C1941       C  0.86237042  0.92663926  0.33136354    -0.05000
C1942       C  0.87719894  0.93045612  0.36017500     0.09200
C1943       C  0.87476140  0.95871146  0.37603795    -0.02300
C1944       C  0.85911443  0.98391128  0.36251111    -0.00600
C1945       C  0.84806884  0.98234611  0.33098341    -0.04200
C1946       C  0.84687087  0.95174581  0.31742663     0.02800
C1947       C  0.89196320  0.90369204  0.37622137     0.09600
C1948       C  0.88740602  0.96125252  0.40736245     0.35500
C1949       C  0.82814341  0.94493854  0.29010802     0.39000
C1950       C  0.92386174  0.89768263  0.37222543    -0.04600
C1951       C  0.93843119  0.87491375  0.39044788     0.02600
C1952       C  0.92168893  0.85960916  0.41414255    -0.04200
C1953       C  0.88938462  0.86434586  0.41678913    -0.00400
C1954       C  0.87456914  0.88633146  0.39792430    -0.03000
C1955       C  0.94190108  0.91569253  0.35019119     0.36300
C1956       C  0.87123191  0.84666418  0.43889993     0.39900
C1957       C  0.96995385  0.86582927  0.38344834     0.39000
C1958       C  0.84162717  0.89214190  0.40175034     0.36000
C1959       C  0.86295372  0.89658826  0.31608847     0.36600
C1960       C  0.84941674  0.00734723  0.38423304     0.39900
N1961       N  0.99474868  0.85805777  0.37700082    -0.38200
N1962       N  0.95647797  0.93020363  0.33285671    -0.39800
N1963       N  0.85622040  0.83266696  0.45622985    -0.37500
N1964       N  0.81541455  0.89694253  0.40493215    -0.39900
N1965       N  0.89728495  0.96290231  0.43234368    -0.39700
N1966       N  0.84178192  0.02373167  0.40404216    -0.37300
N1967       N  0.81285949  0.93778825  0.26903194    -0.38400
N1968       N  0.86346203  0.87268060  0.30382793    -0.40000
C1969       C  0.87249364  0.88957214  0.59145330    -0.05000
C1970       C  0.88884653  0.90581016  0.61505679     0.09200
C1971       C  0.92120320  0.90120019  0.61832791    -0.02300
C1972       C  0.93692076  0.88053125  0.59839574    -0.00600
C1973       C  0.92044958  0.86350068  0.57538062    -0.04200
C1974       C  0.88823549  0.86866272  0.57167750     0.02800
C1975       C  0.87380661  0.93193941  0.63271596     0.09600
C1976       C  0.93856237  0.91886515  0.64152424     0.35500
C1977       C  0.87187488  0.85462868  0.54569979     0.39000
C1978       C  0.86057015  0.92763697  0.66219195    -0.04600
C1979       C  0.85029943  0.95343778  0.68014185     0.02600
C1980       C  0.85310321  0.98495225  0.66885457    -0.04200
C1981       C  0.87216055  0.98772341  0.64125523    -0.00400
C1982       C  0.87785352  0.96212361  0.62177606    -0.03000
C1983       C  0.85699085  0.89626193  0.67376433     0.36300
C1984       C  0.89297996  0.01367515  0.63526486     0.39900
C1985       C  0.83740256  0.94644793  0.71046444     0.39000
C1986       C  0.89102405  0.96689767  0.59104281     0.36000
C1987       C  0.83972738  0.89548891  0.58665422     0.36600
C1988       C  0.97033787  0.87787669  0.60085269     0.39900
N1989       N  0.82699487  0.93986389  0.73431844    -0.38200
N1990       N  0.85398182  0.87118349  0.68282707    -0.39800
N1991       N  0.91089683  0.03296771  0.62929673    -0.37500
N1992       N  0.90145270  0.97070961  0.56661799    -0.39900
N1993       N  0.95225097  0.93315192  0.65996598    -0.39700
N1994       N  0.99707927  0.87639044  0.60297815    -0.37300
N1995       N  0.85887873  0.84414214  0.52451096    -0.38400
N1996       N  0.81359313  0.90030331  0.58274294    -0.40000
C1997       C  0.13981485  0.93989721  0.63633442    -0.05000
C1998       C  0.10845711  0.94040443  0.62752799     0.09200
C1999       C  0.09078774  0.96647251  0.63454088    -0.02300
C2000       C  0.10337824  0.99094534  0.65283454    -0.00600
C2001       C  0.13472600  0.98985990  0.66539724    -0.04200
C2002       C  0.15337873  0.96470483  0.65363373     0.02800
C2003       C  0.09442268  0.91439310  0.60867124     0.09600
C2004       C  0.05882669  0.96762880  0.62340082     0.35500
C2005       C  0.18698126  0.96434553  0.65529070     0.39000
C2006       C  0.08374333  0.88695874  0.62310410    -0.04600
C2007       C  0.06869140  0.86349904  0.60540596     0.02600
C2008       C  0.06495145  0.86694968  0.57282515    -0.04200
C2009       C  0.07867794  0.89299480  0.55827850    -0.00400
C2010       C  0.09191378  0.91726430  0.57618199    -0.03000
C2011       C  0.08816473  0.88271819  0.65619786     0.36300
C2012       C  0.08290875  0.89301693  0.52500985     0.39900
C2013       C  0.05711119  0.83594499  0.62107604     0.39000
C2014       C  0.10290216  0.94538814  0.56120928     0.36000
C2015       C  0.15866586  0.91406937  0.62601706     0.36600
C2016       C  0.08187531  0.01549940  0.66041395     0.39900
N2017       N  0.04830301  0.81401208  0.63389315    -0.38200
N2018       N  0.09169538  0.87852654  0.68247676    -0.39800
N2019       N  0.08782499  0.89252754  0.49866592    -0.37500
N2020       N  0.11128516  0.96811339  0.54953871    -0.39900
N2021       N  0.03345089  0.96859685  0.61443310    -0.39700
N2022       N  0.06323190  0.03382465  0.66584926    -0.37300
N2023       N  0.21384498  0.96311702  0.65517859    -0.38400
N2024       N  0.17373077  0.89365972  0.61766003    -0.40000
C2025       C  0.25492926  0.81669274  0.52172885    -0.05000
C2026       C  0.23938826  0.80370767  0.49586694     0.09200
C2027       C  0.25490566  0.80427092  0.46730541    -0.02300
C2028       C  0.28529895  0.81692923  0.46518597    -0.00600
C2029       C  0.30486631  0.82041732  0.49213564    -0.04200
C2030       C  0.28676653  0.82646698  0.51970600     0.02800
C2031       C  0.20494094  0.79577915  0.49700753     0.09600
C2032       C  0.23882713  0.79374002  0.43939132     0.35500
C2033       C  0.29620639  0.84940919  0.54262626     0.39000
C2034       C  0.18332402  0.81518231  0.48207636    -0.04600
C2035       C  0.15142476  0.80696565  0.48086695     0.02600
C2036       C  0.14000990  0.78036794  0.49649194    -0.04200
C2037       C  0.16137214  0.76194929  0.51319680    -0.00400
C2038       C  0.19373595  0.76912354  0.51264930    -0.03000
C2039       C  0.19381634  0.84420580  0.46841379     0.36300
C2040       C  0.15023418  0.73530858  0.53056575     0.39900
C2041       C  0.13031630  0.82681642  0.46417405     0.39000
C2042       C  0.21562814  0.74892853  0.52792726     0.36000
C2043       C  0.23702347  0.82281963  0.54957583     0.36600
C2044       C  0.29250506  0.83209967  0.43600592     0.39900
N2045       N  0.11410717  0.84303815  0.45052132    -0.38200
N2046       N  0.20203926  0.86738554  0.45753851    -0.39800
N2047       N  0.14141495  0.71409566  0.54454134    -0.37500
N2048       N  0.23319528  0.73283973  0.54005140    -0.39900
N2049       N  0.22598756  0.78543610  0.41714713    -0.39700
N2050       N  0.29707603  0.84395822  0.41236350    -0.37300
N2051       N  0.30180248  0.86798188  0.56139692    -0.38400
N2052       N  0.22246880  0.82801866  0.57147367    -0.40000
C2053       C  0.34618975  0.72772015  0.46411482    -0.05000
C2054       C  0.36757084  0.71552280  0.48519615     0.09200
C2055       C  0.38062549  0.73533241  0.50758882    -0.02300
C2056       C  0.37671914  0.76777902  0.50557886    -0.00600
C2057       C  0.35196964  0.78131607  0.48722311    -0.04200
C2058       C  0.33781307  0.75963430  0.46520598     0.02800
C2059       C  0.38143180  0.68395891  0.47964152     0.09600
C2060       C  0.40065774  0.72240927  0.53140072     0.35500
C2061       C  0.32052445  0.76921282  0.43822025     0.39000
C2062       C  0.41204562  0.68185618  0.46772345    -0.04600
C2063       C  0.42574070  0.65272608  0.46306012     0.02600
C2064       C  0.40939434  0.62535122  0.47082535    -0.04200
C2065       C  0.37830924  0.62706041  0.48091707    -0.00400
C2066       C  0.36434299  0.65627274  0.48546646    -0.03000
C2067       C  0.43049631  0.70959158  0.46182884     0.36300
C2068       C  0.36117644  0.59862690  0.48747179     0.39900
C2069       C  0.45757069  0.65095192  0.45198902     0.39000
C2070       C  0.33297817  0.65774522  0.49748984     0.36000
C2071       C  0.33489894  0.70759939  0.43912093     0.36600
C2072       C  0.40316920  0.78543597  0.51750508     0.39900
N2073       N  0.48295822  0.64962351  0.44329457    -0.38200
N2074       N  0.44617288  0.73115702  0.45753343    -0.39800
N2075       N  0.34771889  0.57579477  0.49259529    -0.37500
N2076       N  0.30790938  0.65858227  0.50710706    -0.39900
N2077       N  0.41641694  0.71229193  0.55057728    -0.39700
N2078       N  0.42536375  0.79755130  0.52726278    -0.37300
N2079       N  0.30771442  0.77291616  0.41486699    -0.38400
N2080       N  0.32626059  0.69180382  0.41899964    -0.40000
C2081       C  0.24898087  0.19805772  0.50089472    -0.05000
C2082       C  0.24168037  0.22954938  0.49800068     0.09200
C2083       C  0.26603418  0.25139205  0.49773454    -0.02300
C2084       C  0.29742715  0.24199189  0.50007848    -0.00600
C2085       C  0.30617184  0.20968487  0.49712275    -0.04200
C2086       C  0.28044120  0.18810581  0.50088464     0.02800
C2087       C  0.20824908  0.24007170  0.49865931     0.09600
C2088       C  0.25851738  0.28418877  0.49688220     0.35500
C2089       C  0.28463643  0.15522157  0.50528184     0.39000
C2090       C  0.19124444  0.23881685  0.52650496    -0.04600
C2091       C  0.15950019  0.24704384  0.52712378     0.02600
C2092       C  0.14416768  0.25794967  0.49980153    -0.04200
C2093       C  0.16252040  0.26180526  0.47255175    -0.00400
C2094       C  0.19387271  0.25199706  0.47183962    -0.03000
C2095       C  0.20656621  0.22865076  0.55474451     0.36300
C2096       C  0.14937536  0.27530028  0.44472614     0.39900
C2097       C  0.14317341  0.24352790  0.55630639     0.39000
C2098       C  0.21127929  0.25340169  0.44310846     0.36000
C2099       C  0.22360748  0.17556227  0.50359149     0.36600
C2100       C  0.31863862  0.26626409  0.51059819     0.39900
N2101       N  0.13072273  0.24094122  0.57991774    -0.38200
N2102       N  0.21878346  0.22044403  0.57717732    -0.39800
N2103       N  0.13897363  0.28591274  0.42241239    -0.37500
N2104       N  0.22520580  0.25442365  0.42020615    -0.39900
N2105       N  0.25251784  0.31024792  0.49605793    -0.39700
N2106       N  0.33427429  0.28647223  0.51948530    -0.37300
N2107       N  0.28462220  0.12879060  0.50979434    -0.38400
N2108       N  0.20339135  0.15774508  0.50603870    -0.40000
C2109       C  0.41677404  0.33232504  0.50574308    -0.05000
C2110       C  0.42227189  0.31201057  0.48075146     0.09200
C2111       C  0.44186607  0.32191915  0.45629459    -0.02300
C2112       C  0.45463078  0.35247870  0.45612436    -0.00600
C2113       C  0.44835777  0.37331975  0.48083616    -0.04200
C2114       C  0.42931470  0.36253430  0.50582018     0.02800
C2115       C  0.40611474  0.28075050  0.48050682     0.09600
C2116       C  0.44920607  0.30045008  0.43149697     0.35500
C2117       C  0.42238801  0.38188508  0.53260113     0.39000
C2118       C  0.38136465  0.27468465  0.46006622    -0.04600
C2119       C  0.36211732  0.24801021  0.46377556     0.02600
C2120       C  0.36515123  0.22757694  0.49030837    -0.04200
C2121       C  0.39132398  0.23455858  0.51054040    -0.00400
C2122       C  0.41226840  0.25941731  0.50408785    -0.03000
C2123       C  0.37466144  0.29702769  0.43580444     0.36300
C2124       C  0.39954881  0.21682454  0.53765703     0.39900
C2125       C  0.33713638  0.24445735  0.44122359     0.39000
C2126       C  0.44032469  0.26395708  0.52269194     0.36000
C2127       C  0.39870682  0.32204099  0.53236719     0.36600
C2128       C  0.47311384  0.36255197  0.42985518     0.39900
N2129       N  0.31768858  0.24406629  0.42257574    -0.38200
N2130       N  0.36935277  0.31480014  0.41650661    -0.39800
N2131       N  0.40922072  0.20444578  0.55935858    -0.37500
N2132       N  0.46239264  0.26747977  0.53780268    -0.39900
N2133       N  0.45506064  0.28330305  0.41171040    -0.39700
N2134       N  0.48777110  0.37052503  0.40879528    -0.37300
N2135       N  0.41624535  0.39686914  0.55398457    -0.38400
N2136       N  0.38532527  0.31426917  0.55431304    -0.40000
C2137       C  0.66507130  0.24904076  0.00204464    -0.05000
C2138       C  0.69401535  0.26418078  0.99801126     0.09200
C2139       C  0.72119361  0.24674911  0.99959506    -0.02300
C2140       C  0.71947548  0.21431158  0.00213711    -0.00600
C2141       C  0.69036658  0.19770939  0.99772232    -0.04200
C2142       C  0.66317830  0.21610809  0.00298271     0.02800
C2143       C  0.69721363  0.29880787  0.99595559     0.09600
C2144       C  0.75134905  0.26256397  0.00040040     0.35500
C2145       C  0.63280313  0.20178664  0.00791040     0.39000
C2146       C  0.69613131  0.31673352  0.02323821    -0.04600
C2147       C  0.70619657  0.34804882  0.02316089     0.02600
C2148       C  0.71802359  0.36204741  0.99548603    -0.04200
C2149       C  0.71939495  0.34342000  0.96820298    -0.00400
C2150       C  0.70800012  0.31252037  0.96828304    -0.03000
C2151       C  0.68567451  0.30238819  0.05189814     0.36300
C2152       C  0.73477044  0.35477290  0.94046013     0.39900
C2153       C  0.70512069  0.36484463  0.05235859     0.39000
C2154       C  0.70838973  0.29431707  0.93989692     0.36000
C2155       C  0.63711307  0.26737654  0.00399806     0.36600
C2156       C  0.74707320  0.19991957  0.01470710     0.39900
N2157       N  0.70454106  0.37748258  0.07607580    -0.38200
N2158       N  0.67722380  0.29084813  0.07461111    -0.39800
N2159       N  0.74737926  0.36353280  0.91841888    -0.37500
N2160       N  0.70871559  0.28013473  0.91705470    -0.39900
N2161       N  0.77529156  0.27515834  0.00110823    -0.39700
N2162       N  0.76890423  0.18909724  0.02576268    -0.37300
N2163       N  0.60848196  0.19066596  0.01187037    -0.38400
N2164       N  0.61486935  0.28208694  0.00563649    -0.40000
C2165       C  0.82264574  0.09066192  0.94940267    -0.05000
C2166       C  0.81668281  0.11682290  0.96809039     0.09200
C2167       C  0.84056622  0.12947258  0.98678442    -0.02300
C2168       C  0.86885619  0.11393140  0.98985471    -0.00600
C2169       C  0.87514578  0.08756612  0.97142183    -0.04200
C2170       C  0.85156626  0.07563233  0.95154183     0.02800
C2171       C  0.78406547  0.12719034  0.97317436     0.09600
C2172       C  0.83579615  0.15783444  0.00420658     0.35500
C2173       C  0.85469444  0.04522904  0.93759014     0.39000
C2174       C  0.76678952  0.11454836  0.99781598    -0.04600
C2175       C  0.73642737  0.12497673  0.00445788     0.02600
C2176       C  0.72221293  0.14850073  0.98566859    -0.04200
C2177       C  0.74067497  0.16051916  0.96018226    -0.00400
C2178       C  0.77108161  0.15003532  0.95449582    -0.03000
C2179       C  0.78054890  0.09005355  0.01628878     0.36300
C2180       C  0.72908498  0.18411802  0.93931758     0.39900
C2181       C  0.72121361  0.11023838  0.03053020     0.39000
C2182       C  0.78929886  0.16279112  0.92912797     0.36000
C2183       C  0.79862932  0.07846058  0.92884470     0.36600
C2184       C  0.88866972  0.12216080  0.01591615     0.39900
N2185       N  0.71033425  0.09749149  0.05152791    -0.38200
N2186       N  0.79156348  0.07048634  0.03077973    -0.39800
N2187       N  0.72129159  0.20303256  0.92210960    -0.37500
N2188       N  0.80376498  0.17294923  0.90889172    -0.39900
N2189       N  0.83349072  0.18063142  0.01817980    -0.39700
N2190       N  0.90238986  0.12825675  0.03827736    -0.37300
N2191       N  0.85607957  0.02058578  0.92703972    -0.38400
N2192       N  0.77993556  0.06858926  0.91197180    -0.40000
C2193       C  0.27096995  0.25089132  0.97248676    -0.05000
C2194       C  0.27772620  0.26943724  0.99842797     0.09200
C2195       C  0.29196270  0.25624031  0.02432782    -0.02300
C2196       C  0.29959990  0.22437407  0.02471476    -0.00600
C2197       C  0.29513127  0.20470187  0.99742757    -0.04200
C2198       C  0.27899167  0.21907511  0.97189008     0.02800
C2199       C  0.26932088  0.30312148  0.99911864     0.09600
C2200       C  0.29735028  0.27572181  0.05161759     0.35500
C2201       C  0.27070927  0.20217539  0.94388007     0.39000
C2202       C  0.23915792  0.31222753  0.00800293    -0.04600
C2203       C  0.23225116  0.34396201  0.01156767     0.02600
C2204       C  0.25509384  0.36676599  0.00529861    -0.04200
C2205       C  0.28537403  0.35765486  0.99681421    -0.00400
C2206       C  0.29241376  0.32599167  0.99365049    -0.03000
C2207       C  0.21515564  0.28897737  0.01345214     0.36300
C2208       C  0.31005965  0.38072900  0.99376018     0.39900
C2209       C  0.20193094  0.35305914  0.02252989     0.39000
C2210       C  0.32362400  0.31692048  0.98517227     0.36000
C2211       C  0.25598007  0.26507035  0.94590222     0.36600
C2212       C  0.30813211  0.21306110  0.05522750     0.39900
N2213       N  0.17781051  0.35991036  0.03188486    -0.38200
N2214       N  0.19565529  0.27071407  0.01759824    -0.39800
N2215       N  0.33022802  0.39869218  0.99220084    -0.37500
N2216       N  0.34860238  0.30992439  0.97845392    -0.39900
N2217       N  0.30143131  0.29129017  0.07323385    -0.39700
N2218       N  0.31461731  0.20557480  0.08018727    -0.37300
N2219       N  0.26318487  0.19106053  0.92051053    -0.38400
N2220       N  0.24410468  0.27656072  0.92481174    -0.40000
C2221       C  0.24399266  0.10289344  0.96847491    -0.05000
C2222       C  0.21712534  0.10830420  0.98575024     0.09200
C2223       C  0.21515960  0.13663758  0.00218756    -0.02300
C2224       C  0.24120698  0.15738596  0.00406049    -0.00600
C2225       C  0.27017026  0.15019857  0.98904742    -0.04200
C2226       C  0.26683062  0.12630397  0.96571063     0.02800
C2227       C  0.19005604  0.08558295  0.98490322     0.09600
C2228       C  0.18664774  0.14386403  0.01857597     0.35500
C2229       C  0.28118369  0.12814344  0.93535652     0.39000
C2230       C  0.17875232  0.07292280  0.01278080    -0.04600
C2231       C  0.14885280  0.05925273  0.01367183     0.02600
C2232       C  0.13272833  0.05156466  0.98577308    -0.04200
C2233       C  0.14667565  0.05960190  0.95724162    -0.00400
C2234       C  0.17386640  0.07859877  0.95689242    -0.03000
C2235       C  0.19735613  0.07502774  0.04093455     0.36300
C2236       C  0.13203940  0.05018781  0.92829817     0.39900
C2237       C  0.13389927  0.05678929  0.04359303     0.39000
C2238       C  0.18385876  0.09249381  0.92795603     0.36000
C2239       C  0.24847158  0.07326760  0.95315881     0.36600
C2240       C  0.23680047  0.18572993  0.02169947     0.39900
N2241       N  0.12270567  0.05675733  0.06794287    -0.38200
N2242       N  0.21208635  0.07620055  0.06345246    -0.39800
N2243       N  0.12077513  0.04216673  0.90514443    -0.37500
N2244       N  0.19173988  0.10370071  0.90487976    -0.39900
N2245       N  0.16418898  0.14930441  0.03215498    -0.39700
N2246       N  0.23173721  0.20784215  0.03602036    -0.37300
N2247       N  0.29173534  0.12904249  0.91070144    -0.38400
N2248       N  0.25242541  0.04958482  0.94120366    -0.40000
C2249       C  0.74091503  0.82876195  0.49653260    -0.05000
C2250       C  0.74828966  0.79716008  0.49567573     0.09200
C2251       C  0.72431908  0.77517923  0.49883243    -0.02300
C2252       C  0.69361268  0.78462275  0.50498642    -0.00600
C2253       C  0.68397840  0.81627369  0.49997262    -0.04200
C2254       C  0.70942583  0.83843263  0.49843384     0.02800
C2255       C  0.78168885  0.78690080  0.49594434     0.09600
C2256       C  0.73181353  0.74240946  0.49824623     0.35500
C2257       C  0.70478513  0.87151815  0.50036765     0.39000
C2258       C  0.79817224  0.78541896  0.52420688    -0.04600
C2259       C  0.82982452  0.77688815  0.52481082     0.02600
C2260       C  0.84548160  0.76837466  0.49688632    -0.04200
C2261       C  0.82762627  0.76755332  0.46882903    -0.00400
C2262       C  0.79644012  0.77775855  0.46836939    -0.03000
C2263       C  0.78251473  0.79321211  0.55293577     0.36300
C2264       C  0.84092344  0.75656970  0.43995962     0.39900
C2265       C  0.84605016  0.77874519  0.55441548     0.39000
C2266       C  0.77956480  0.77957319  0.43923151     0.36000
C2267       C  0.76617313  0.85148242  0.49531435     0.36600
C2268       C  0.67609524  0.76305039  0.52411216     0.39900
N2269       N  0.85881650  0.78073340  0.57806559    -0.38200
N2270       N  0.77024894  0.79927887  0.57597873    -0.39800
N2271       N  0.85142096  0.74794822  0.41683863    -0.37500
N2272       N  0.76622470  0.78124008  0.41593550    -0.39900
N2273       N  0.73785382  0.71635462  0.49750510    -0.39700
N2274       N  0.66370630  0.74570326  0.54052687    -0.37300
N2275       N  0.70402477  0.89822239  0.50277602    -0.38400
N2276       N  0.78638305  0.86946716  0.49442906    -0.40000
C2277       C  0.58808323  0.76099077  0.53102810    -0.05000
C2278       C  0.58487217  0.74222333  0.50464423     0.09200
C2279       C  0.60030307  0.75079273  0.47748965    -0.02300
C2280       C  0.62251235  0.77524108  0.47772627    -0.00600
C2281       C  0.62608353  0.79612352  0.50392187    -0.04200
C2282       C  0.60799029  0.78764186  0.53103293     0.02800
C2283       C  0.57057341  0.71032092  0.50727038     0.09600
C2284       C  0.59358311  0.73357251  0.44911960     0.35500
C2285       C  0.61097951  0.80214384  0.56103457     0.39000
C2286       C  0.53811605  0.70573671  0.51028579    -0.04600
C2287       C  0.52553343  0.67551731  0.51433405     0.02600
C2288       C  0.54521552  0.64946807  0.51397358    -0.04200
C2289       C  0.57789863  0.65448675  0.51273789    -0.00400
C2290       C  0.59034403  0.68450860  0.50863435    -0.03000
C2291       C  0.51758356  0.73200356  0.50807034     0.36300
C2292       C  0.59924308  0.62895164  0.51661479     0.39900
C2293       C  0.49245456  0.67145269  0.51939834     0.39000
C2294       C  0.62370542  0.68854502  0.50466339     0.36000
C2295       C  0.57123451  0.75195243  0.55894699     0.36600
C2296       C  0.64313878  0.77629721  0.45120614     0.39900
N2297       N  0.46619429  0.66803655  0.52428482    -0.38200
N2298       N  0.50109265  0.75288719  0.50615287    -0.39800
N2299       N  0.61680396  0.60911691  0.51976025    -0.37500
N2300       N  0.65022275  0.69122228  0.50076188    -0.39900
N2301       N  0.58776966  0.72008248  0.42651573    -0.39700
N2302       N  0.65889730  0.77490411  0.42955758    -0.37300
N2303       N  0.61125059  0.80984224  0.58679652    -0.38400
N2304       N  0.55772442  0.74486998  0.58104915    -0.40000
C2305       C  0.71112689  0.76930880  0.97071745    -0.05000
C2306       C  0.70208761  0.75032552  0.99560523     0.09200
C2307       C  0.68352917  0.76303076  0.01906957    -0.02300
C2308       C  0.67298308  0.79399403  0.01724588    -0.00600
C2309       C  0.68532742  0.81534165  0.99446113    -0.04200
C2310       C  0.70335384  0.80123979  0.97008203     0.02800
C2311       C  0.71038902  0.71632568  0.99621304     0.09600
C2312       C  0.67454250  0.74359476  0.04511803     0.35500
C2313       C  0.71521191  0.81890022  0.94406718     0.39000
C2314       C  0.74130861  0.70698847  0.00203162    -0.04600
C2315       C  0.74880625  0.67515745  0.00283329     0.02600
C2316       C  0.72555927  0.65221972  0.99827656    -0.04200
C2317       C  0.69444865  0.66142256  0.99375184    -0.00400
C2318       C  0.68705166  0.69320474  0.99175015    -0.03000
C2319       C  0.76569635  0.72995518  0.00729241     0.36300
C2320       C  0.66968727  0.63823413  0.99286157     0.39900
C2321       C  0.78049982  0.66609966  0.00898445     0.39000
C2322       C  0.65532271  0.70205700  0.98492269     0.36000
C2323       C  0.72927125  0.75587472  0.94578773     0.36600
C2324       C  0.64613818  0.80084766  0.03623298     0.39900
N2325       N  0.80592947  0.65948161  0.01424850    -0.38200
N2326       N  0.78586577  0.74755931  0.01137668    -0.39800
N2327       N  0.64966528  0.62002088  0.99278835    -0.37500
N2328       N  0.62995840  0.70895386  0.97952210    -0.39900
N2329       N  0.66751930  0.72791272  0.06573404    -0.39700
N2330       N  0.62437948  0.80514241  0.05131821    -0.37300
N2331       N  0.72554925  0.83072246  0.92229881    -0.38400
N2332       N  0.74393718  0.74513759  0.92612655    -0.40000
C2333       C  0.73143061  0.92737539  0.00359771    -0.05000
C2334       C  0.76143872  0.91554399  0.00688348     0.09200
C2335       C  0.76518803  0.88333477  0.00856214    -0.02300
C2336       C  0.73951619  0.86259938  0.00529707    -0.00600
C2337       C  0.70852969  0.87363686  0.99900995    -0.04200
C2338       C  0.70524901  0.90712134  0.00073775     0.02800
C2339       C  0.78991633  0.93633080  0.00599681     0.09600
C2340       C  0.79634267  0.87138667  0.01362430     0.35500
C2341       C  0.67522514  0.92187281  0.99718574     0.39000
C2342       C  0.79957303  0.95423224  0.03199272    -0.04600
C2343       C  0.82942514  0.96888608  0.03254289     0.02600
C2344       C  0.85000718  0.96542399  0.00712530    -0.04200
C2345       C  0.83863235  0.94986825  0.98005911    -0.00400
C2346       C  0.80925937  0.93514943  0.97977837    -0.03000
C2347       C  0.77946349  0.95618629  0.05882479     0.36300
C2348       C  0.85696593  0.94780812  0.95196408     0.39900
C2349       C  0.83915407  0.98627820  0.05982514     0.39000
C2350       C  0.80026720  0.91643831  0.95298991     0.36000
C2351       C  0.72766483  0.96073670  0.00146220     0.36600
C2352       C  0.74650423  0.83065800  0.01205771     0.39900
N2353       N  0.84669030  0.00027859  0.08162802    -0.38200
N2354       N  0.76340029  0.95783082  0.08023663    -0.39800
N2355       N  0.87020769  0.94478752  0.92888710    -0.37500
N2356       N  0.79466873  0.90112153  0.93153216    -0.39900
N2357       N  0.82113052  0.86192501  0.01734244    -0.39700
N2358       N  0.75373101  0.80581621  0.01869643    -0.37300
N2359       N  0.65184852  0.93442015  0.99369478    -0.38400
N2360       N  0.72459297  0.98728408  0.99961804    -0.40000
C2361       C  0.28265106  0.70155993  0.97337748    -0.05000
C2362       C  0.27218089  0.72091200  0.99735165     0.09200
C2363       C  0.25486953  0.70832561  0.02207042    -0.02300
C2364       C  0.24901283  0.67615621  0.02350833    -0.00600
C2365       C  0.25897754  0.65641474  0.99911471    -0.04200
C2366       C  0.27547832  0.66964721  0.97375355     0.02800
C2367       C  0.28019077  0.75465315  0.99707948     0.09600
C2368       C  0.24322827  0.72866418  0.04618003     0.35500
C2369       C  0.28603571  0.65083871  0.94802908     0.39000
C2370       C  0.26414298  0.77467373  0.97752783    -0.04600
C2371       C  0.27177771  0.80657313  0.97692765     0.02600
C2372       C  0.29473446  0.82007419  0.99788789    -0.04200
C2373       C  0.30914330  0.79858678  0.01928612    -0.00400
C2374       C  0.30313356  0.76636197  0.01717675    -0.03000
C2375       C  0.23949892  0.76209226  0.95770424     0.36300
C2376       C  0.32667910  0.80777172  0.04675641     0.39900
C2377       C  0.25656868  0.82430015  0.95278854     0.39000
C2378       C  0.31938235  0.74485367  0.03736036     0.36000
C2379       C  0.30149833  0.71440839  0.94852254     0.36600
C2380       C  0.23282075  0.66383154  0.05035737     0.39900
N2381       N  0.24381769  0.83617638  0.93243885    -0.38200
N2382       N  0.21989632  0.75199959  0.94201216    -0.39800
N2383       N  0.34010068  0.81354378  0.06945764    -0.37500
N2384       N  0.33201850  0.72775729  0.05357565    -0.39900
N2385       N  0.23396750  0.74493568  0.06534388    -0.39700
N2386       N  0.22035927  0.65428132  0.07215162    -0.37300
N2387       N  0.29440080  0.63672410  0.92686351    -0.38400
N2388       N  0.31662969  0.72420664  0.92859770    -0.40000
C2389       C  0.21382153  0.86411584  0.03387740    -0.05000
C2390       C  0.19985420  0.88598367  0.01481471     0.09200
C2391       C  0.21597043  0.89751903  0.98909993    -0.02300
C2392       C  0.24697850  0.88859829  0.98299840    -0.00600
C2393       C  0.26364840  0.86836869  0.00399055    -0.04200
C2394       C  0.24488162  0.85503458  0.02871372     0.02800
C2395       C  0.16759865  0.89678224  0.02145719     0.09600
C2396       C  0.19955396  0.91777034  0.96779806     0.35500
C2397       C  0.25706493  0.83350549  0.05136162     0.39000
C2398       C  0.16320311  0.92530129  0.03675898    -0.04600
C2399       C  0.13309490  0.93741485  0.03952785     0.02600
C2400       C  0.10718070  0.92135732  0.02685405    -0.04200
C2401       C  0.11139995  0.89177153  0.01354768    -0.00400
C2402       C  0.14154065  0.87947801  0.01085925    -0.03000
C2403       C  0.18980810  0.94310892  0.04812695     0.36300
C2404       C  0.08485365  0.87437391  0.00176052     0.39900
C2405       C  0.12917216  0.96741398  0.05378734     0.39000
C2406       C  0.14602137  0.84975296  0.99580807     0.36000
C2407       C  0.19607482  0.85156048  0.05976025     0.36600
C2408       C  0.25875110  0.89875976  0.95315829     0.39900
N2409       N  0.12650905  0.99127788  0.06559080    -0.38200
N2410       N  0.21071514  0.95780393  0.05712495    -0.39800
N2411       N  0.06387807  0.86007699  0.99238812    -0.37500
N2412       N  0.14980114  0.82605910  0.98381306    -0.39900
N2413       N  0.18631795  0.93357817  0.95075835    -0.39700
N2414       N  0.26652894  0.90728983  0.92891004    -0.37300
N2415       N  0.26423209  0.81649215  0.07073521    -0.38400
N2416       N  0.18184683  0.84167586  0.08029837    -0.40000
C2417       C  0.23244001  0.98683167  0.27550201    -0.05000
C2418       C  0.25428810  0.00907340  0.28545897     0.09200
C2419       C  0.24460898  0.03359490  0.30439451    -0.02300
C2420       C  0.21308064  0.03618841  0.31373622    -0.00600
C2421       C  0.18948550  0.01410968  0.30318469    -0.04200
C2422       C  0.20063287  0.98945406  0.28335072     0.02800
C2423       C  0.28760600  0.00762764  0.27493697     0.09600
C2424       C  0.26728802  0.05776766  0.31242736     0.35500
C2425       C  0.18025725  0.96507711  0.27136892     0.39000
C2426       C  0.29567160  0.01556403  0.24414791    -0.04600
C2427       C  0.32721744  0.01626145  0.23488394     0.02600
C2428       C  0.35094009  0.01012832  0.25664062    -0.04200
C2429       C  0.34281962  0.00280312  0.28756318    -0.00400
C2430       C  0.31131397  0.00027238  0.29629007    -0.03000
C2431       C  0.27137672  0.02323033  0.22214622     0.36300
C2432       C  0.36679925  0.99985330  0.31108577     0.39900
C2433       C  0.33521663  0.02335987  0.20304955     0.39000
C2434       C  0.30323750  0.98992463  0.32726902     0.36000
C2435       C  0.24296603  0.96095326  0.25669801     0.36600
C2436       C  0.20637380  0.06420203  0.33103563     0.39900
N2437       N  0.34137442  0.02896283  0.17755192    -0.38200
N2438       N  0.25168814  0.02912797  0.20484621    -0.39800
N2439       N  0.38545359  0.99823265  0.33040781    -0.37500
N2440       N  0.29687276  0.98136363  0.35188795    -0.39900
N2441       N  0.28537257  0.07704457  0.31836062    -0.39700
N2442       N  0.20279542  0.08718338  0.34447101    -0.37300
N2443       N  0.16629680  0.94434715  0.26100381    -0.38400
N2444       N  0.25136327  0.94044833  0.24164948    -0.40000
C2445       C  0.68691187  0.04445136  0.28682651    -0.05000
C2446       C  0.70680215  0.02134150  0.27550923     0.09200
C2447       C  0.69477042  0.99832815  0.25511581    -0.02300
C2448       C  0.66294732  0.99791377  0.24678987    -0.00600
C2449       C  0.64264023  0.02053230  0.25881024    -0.04200
C2450       C  0.65533982  0.04470378  0.27780198     0.02800
C2451       C  0.74009253  0.02038726  0.28623521     0.09600
C2452       C  0.71498876  0.97449809  0.24312433     0.35500
C2453       C  0.63647932  0.07037831  0.28808261     0.39000
C2454       C  0.74939189  0.99727852  0.30696710    -0.04600
C2455       C  0.78068109  0.99541979  0.31692612     0.02600
C2456       C  0.80450110  0.01537377  0.30383478    -0.04200
C2457       C  0.79344447  0.04124638  0.28601942    -0.00400
C2458       C  0.76183413  0.04315206  0.27693697    -0.03000
C2459       C  0.72607290  0.97571171  0.31897457     0.36300
C2460       C  0.81454352  0.06527430  0.27481840     0.39900
C2461       C  0.78590900  0.97527281  0.34328580     0.39000
C2462       C  0.75194209  0.06785030  0.25647731     0.36000
C2463       C  0.69873179  0.06758404  0.30864454     0.36600
C2464       C  0.65157244  0.97496371  0.22460491     0.39900
N2465       N  0.78878308  0.95900977  0.36439119    -0.38200
N2466       N  0.70752757  0.95851836  0.32841550    -0.39800
N2467       N  0.83046095  0.08488732  0.26534636    -0.37500
N2468       N  0.74413076  0.08759757  0.24023143    -0.39900
N2469       N  0.73068830  0.95509608  0.23362254    -0.39700
N2470       N  0.64259531  0.95679551  0.20674124    -0.37300
N2471       N  0.62215406  0.09151269  0.29590013    -0.38400
N2472       N  0.70802221  0.08608346  0.32600499    -0.40000
C2473       C  0.37716950  0.90043197  0.35678520    -0.05000
C2474       C  0.38822295  0.89911308  0.38751043     0.09200
C2475       C  0.41520506  0.91606918  0.39595873    -0.02300
C2476       C  0.43273661  0.93194275  0.37332031    -0.00600
C2477       C  0.42194624  0.93359409  0.34211037    -0.04200
C2478       C  0.39357014  0.91781130  0.33421875     0.02800
C2479       C  0.37335809  0.87761344  0.41055778     0.09600
C2480       C  0.42481171  0.91777633  0.42825724     0.35500
C2481       C  0.38069857  0.91923770  0.30308492     0.39000
C2482       C  0.38116391  0.84618060  0.41052928    -0.04600
C2483       C  0.37233368  0.82652808  0.43534852     0.02600
C2484       C  0.35328187  0.83770890  0.46046876    -0.04200
C2485       C  0.34533633  0.87015474  0.45918824    -0.00400
C2486       C  0.35452626  0.88920783  0.43413489    -0.03000
C2487       C  0.39993632  0.83437690  0.38515903     0.36300
C2488       C  0.32897865  0.88549351  0.48410874     0.39900
C2489       C  0.38772031  0.79696260  0.43576956     0.39000
C2490       C  0.34436166  0.92114845  0.43231279     0.36000
C2491       C  0.34854271  0.88405306  0.34864690     0.36600
C2492       C  0.46274831  0.94498192  0.38242767     0.39900
N2493       N  0.40087200  0.77379866  0.43445210    -0.38200
N2494       N  0.41473827  0.82504865  0.36488369    -0.39800
N2495       N  0.31673404  0.89999286  0.50296264    -0.37500
N2496       N  0.33597339  0.94646676  0.43065987    -0.39900
N2497       N  0.43247948  0.92021718  0.45392982    -0.39700
N2498       N  0.48669263  0.95506857  0.39000947    -0.37300
N2499       N  0.37032090  0.92011394  0.27828036    -0.38400
N2500       N  0.32566469  0.87097318  0.34238641    -0.40000
C2501       C  0.59096916  0.88556680  0.36128901    -0.05000
C2502       C  0.59474883  0.89614601  0.39209898     0.09200
C2503       C  0.58355598  0.92587010  0.40004390    -0.02300
C2504       C  0.56973667  0.94509003  0.37740969    -0.00600
C2505       C  0.56519218  0.93438755  0.34651149    -0.04200
C2506       C  0.57636782  0.90431177  0.33870282     0.02800
C2507       C  0.60844074  0.87521610  0.41669903     0.09600
C2508       C  0.58506540  0.93661238  0.43193271     0.35500
C2509       C  0.57275316  0.89185932  0.30753631     0.39000
C2510       C  0.64023368  0.86755782  0.41702845    -0.04600
C2511       C  0.65301074  0.84904895  0.44117695     0.02600
C2512       C  0.63480118  0.84083123  0.46804818    -0.04200
C2513       C  0.60181960  0.84729895  0.46562264    -0.00400
C2514       C  0.58912349  0.86276066  0.43972132    -0.03000
C2515       C  0.66011553  0.87920001  0.39238314     0.36300
C2516       C  0.58020725  0.84067869  0.49067684     0.39900
C2517       C  0.68417643  0.83794968  0.43605783     0.39000
C2518       C  0.55565530  0.86650953  0.43689659     0.36000
C2519       C  0.60121305  0.85468532  0.35303425     0.36600
C2520       C  0.56128029  0.97639707  0.38613990     0.39900
N2521       N  0.70874320  0.82910979  0.43003261    -0.38200
N2522       N  0.67594785  0.88835579  0.37268673    -0.39800
N2523       N  0.56214809  0.83616401  0.51004550    -0.37500
N2524       N  0.52905044  0.86947273  0.43440147    -0.39900
N2525       N  0.58517637  0.94566768  0.45723490    -0.39700
N2526       N  0.55470319  0.00132873  0.39336231    -0.37300
N2527       N  0.57037673  0.88169227  0.28272807    -0.38400
N2528       N  0.60953103  0.83011352  0.34650434    -0.40000
C2529       C  0.33651999  0.14957160  0.41399878    -0.05000
C2530       C  0.36812164  0.14306896  0.40890068     0.09200
C2531       C  0.39049340  0.15814691  0.42728910    -0.02300
C2532       C  0.38175312  0.17274858  0.45505407    -0.00600
C2533       C  0.34963360  0.18036496  0.46145759    -0.04200
C2534       C  0.32756352  0.17052118  0.43790591     0.02800
C2535       C  0.37888127  0.11934796  0.38564768     0.09600
C2536       C  0.42315927  0.15683674  0.41847894     0.35500
C2537       C  0.29596169  0.18141688  0.43613563     0.39000
C2538       C  0.37567378  0.12441902  0.35356653    -0.04600
C2539       C  0.39038549  0.10467410  0.33209785     0.02600
C2540       C  0.41188452  0.08178869  0.34243937    -0.04200
C2541       C  0.41241714  0.07489225  0.37462481    -0.00400
C2542       C  0.39576742  0.09328893  0.39588498    -0.03000
C2543       C  0.35834762  0.15085319  0.34246565     0.36300
C2544       C  0.42937887  0.04851905  0.38639594     0.39900
C2545       C  0.38191397  0.10766749  0.29958338     0.39000
C2546       C  0.39748294  0.08610444  0.42872441     0.36000
C2547       C  0.31294503  0.13392803  0.39521399     0.36600
C2548       C  0.40662962  0.17562964  0.47772112     0.39900
N2549       N  0.37477927  0.10999519  0.27377155    -0.38200
N2550       N  0.34442874  0.17182749  0.33356809    -0.39800
N2551       N  0.44265487  0.02741343  0.39595943    -0.37500
N2552       N  0.39964663  0.07995450  0.45474749    -0.39900
N2553       N  0.44904259  0.15583786  0.41130274    -0.39700
N2554       N  0.42810201  0.17581113  0.49400706    -0.37300
N2555       N  0.27074332  0.18982250  0.43253219    -0.38400
N2556       N  0.29406009  0.12153426  0.38029055    -0.40000
C2557       C  0.51916285  0.20441533  0.21028360    -0.05000
C2558       C  0.49701760  0.22348779  0.22440028     0.09200
C2559       C  0.47598386  0.21090630  0.24616772    -0.02300
C2560       C  0.47638994  0.17895427  0.25297530    -0.00600
C2561       C  0.49825661  0.15954386  0.23842360    -0.04200
C2562       C  0.52051401  0.17287061  0.21795126     0.02800
C2563       C  0.49541186  0.25664245  0.21503081     0.09600
C2564       C  0.45345054  0.23068485  0.26105232     0.35500
C2565       C  0.54485202  0.15458793  0.20401940     0.39000
C2566       C  0.47270671  0.26588381  0.19373110    -0.04600
C2567       C  0.47225661  0.29664701  0.18271517     0.02600
C2568       C  0.49364544  0.31980208  0.19494502    -0.04200
C2569       C  0.51905288  0.30836521  0.21338695    -0.00400
C2570       C  0.51887159  0.27759845  0.22434692    -0.03000
C2571       C  0.45022297  0.24300366  0.18225010     0.36300
C2572       C  0.54529547  0.32784493  0.22262994     0.39900
C2573       C  0.45221664  0.30176918  0.15609197     0.39000
C2574       C  0.54193369  0.26778893  0.24690716     0.36000
C2575       C  0.53984442  0.21707304  0.18674883     0.36600
C2576       C  0.45478045  0.16638905  0.27555396     0.39900
N2577       N  0.43608090  0.30453090  0.13472713    -0.38200
N2578       N  0.43235816  0.22476463  0.17319711    -0.39800
N2579       N  0.56726891  0.34169128  0.23032404    -0.37500
N2580       N  0.55997721  0.26000973  0.26518597    -0.39900
N2581       N  0.43520540  0.24613032  0.27298622    -0.39700
N2582       N  0.43750134  0.15667798  0.29371049    -0.37300
N2583       N  0.56513068  0.14123724  0.19289894    -0.38400
N2584       N  0.55619666  0.22700641  0.16786037    -0.40000
C2585       C  0.46898238  0.75556409  0.19536198    -0.05000
C2586       C  0.49606749  0.77231652  0.20300811     0.09200
C2587       C  0.52436363  0.75694332  0.20513074    -0.02300
C2588       C  0.52568740  0.72442003  0.20162908    -0.00600
C2589       C  0.49877281  0.70620106  0.19233779    -0.04200
C2590       C  0.46991252  0.72311316  0.18987545     0.02800
C2591       C  0.49478174  0.80605653  0.21126346     0.09600
C2592       C  0.55244287  0.77505586  0.21192536     0.35500
C2593       C  0.43971196  0.70824909  0.18585288     0.39000
C2594       C  0.49730133  0.81550919  0.24266590    -0.04600
C2595       C  0.49778005  0.84729621  0.25044435     0.02600
C2596       C  0.49742729  0.86974151  0.22680438    -0.04200
C2597       C  0.49533364  0.86032492  0.19539480    -0.00400
C2598       C  0.49316110  0.82857564  0.18770958    -0.03000
C2599       C  0.50022467  0.79250097  0.26692071     0.36300
C2600       C  0.49625491  0.88328327  0.17087570     0.39900
C2601       C  0.49840696  0.85689684  0.28273705     0.39000
C2602       C  0.48953725  0.81901697  0.15556827     0.36000
C2603       C  0.43947241  0.77172513  0.19543892     0.36600
C2604       C  0.55556226  0.71114109  0.20880475     0.39900
N2605       N  0.49874516  0.86446235  0.30853512    -0.38200
N2606       N  0.50313214  0.77421840  0.28625853    -0.39800
N2607       N  0.49746567  0.90141302  0.15117945    -0.37500
N2608       N  0.48629316  0.81136895  0.12997337    -0.39900
N2609       N  0.57463001  0.78960366  0.21739650    -0.39700
N2610       N  0.58069127  0.70396017  0.21484227    -0.37300
N2611       N  0.41471866  0.69835208  0.18275822    -0.38400
N2612       N  0.41598781  0.78451236  0.19583898    -0.40000
C2613       C  0.62820099  0.10904249  0.03875463    -0.05000
C2614       C  0.62759612  0.12475987  0.06721713     0.09200
C2615       C  0.64867897  0.14921836  0.07248781    -0.02300
C2616       C  0.67040966  0.15811419  0.04949209    -0.00600
C2617       C  0.66917545  0.14531212  0.01839837    -0.04200
C2618       C  0.64931492  0.11814317  0.01509035     0.02800
C2619       C  0.60839258  0.11225580  0.09354228     0.09600
C2620       C  0.64877033  0.16454566  0.10264728     0.35500
C2621       C  0.65413249  0.09457228  0.99181997     0.39000
C2622       C  0.62293750  0.09550651  0.11760031    -0.04600
C2623       C  0.60522885  0.08322439  0.14220098     0.02600
C2624       C  0.57271474  0.08719799  0.14279864    -0.04200
C2625       C  0.55816523  0.10439067  0.11906312    -0.00400
C2626       C  0.57592462  0.11668270  0.09438306    -0.03000
C2627       C  0.65615944  0.09017521  0.11670003     0.36300
C2628       C  0.52500342  0.11004279  0.12045390     0.39900
C2629       C  0.62031409  0.06489423  0.16593480     0.39000
C2630       C  0.56075294  0.13349362  0.06962599     0.36000
C2631       C  0.60845985  0.08153699  0.03489466     0.36600
C2632       C  0.69556948  0.17800427  0.06045556     0.39900
N2633       N  0.63237629  0.05020995  0.18476899    -0.38200
N2634       N  0.68266857  0.08593798  0.11632998    -0.39800
N2635       N  0.49859500  0.11470634  0.12170766    -0.37500
N2636       N  0.54851025  0.14667158  0.04978964    -0.39900
N2637       N  0.64891353  0.17644216  0.12676577    -0.39700
N2638       N  0.71445020  0.19352868  0.07214281    -0.37300
N2639       N  0.65615160  0.07316377  0.97568152    -0.38400
N2640       N  0.59293698  0.05955715  0.03202482    -0.40000
C2641       C  0.60843025  0.94951024  0.09315664    -0.05000
C2642       C  0.61367565  0.91744101  0.09583573     0.09200
C2643       C  0.60226303  0.90131784  0.12192366    -0.02300
C2644       C  0.58601630  0.91714656  0.14534444    -0.00600
C2645       C  0.57890295  0.94900079  0.14188860    -0.04200
C2646       C  0.59052480  0.96509332  0.11562741     0.02800
C2647       C  0.62906369  0.89987505  0.07013965     0.09600
C2648       C  0.60611018  0.86799171  0.12407805     0.35500
C2649       C  0.58458148  0.99778122  0.11149232     0.39000
C2650       C  0.65839849  0.88692102  0.07460716    -0.04600
C2651       C  0.67068325  0.86631391  0.05245863     0.02600
C2652       C  0.65660273  0.86236213  0.02224955    -0.04200
C2653       C  0.62514166  0.87339078  0.01979504    -0.00400
C2654       C  0.61227477  0.89259477  0.04309251    -0.03000
C2655       C  0.67651661  0.89560416  0.10188541     0.36300
C2656       C  0.60270277  0.86161434  0.99764142     0.39900
C2657       C  0.69681266  0.84794294  0.06243408     0.39000
C2658       C  0.58103603  0.90478669  0.03952342     0.36000
C2659       C  0.62113853  0.96640645  0.06693662     0.36600
C2660       C  0.57635973  0.90006732  0.17268824     0.39900
N2661       N  0.71673993  0.83330944  0.07261342    -0.38200
N2662       N  0.69121166  0.90291645  0.12332144    -0.39800
N2663       N  0.58197013  0.85316729  0.98243416    -0.37500
N2664       N  0.55630178  0.91467771  0.03672787    -0.39900
N2665       N  0.60892648  0.84140788  0.12578951    -0.39700
N2666       N  0.56941296  0.88619309  0.19457626    -0.37300
N2667       N  0.58002236  0.02376517  0.10717435    -0.38400
N2668       N  0.63119123  0.98006747  0.04611627    -0.40000
C2669       C  0.37813754  0.87531555  0.04276707    -0.05000
C2670       C  0.36917401  0.89266823  0.06850949     0.09200
C2671       C  0.33760416  0.89793751  0.07384544    -0.02300
C2672       C  0.31459523  0.88746133  0.05248712    -0.00600
C2673       C  0.32259556  0.86840459  0.02596318    -0.04200
C2674       C  0.35558410  0.86248857  0.02235591     0.02800
C2675       C  0.39305570  0.90614928  0.09018424     0.09600
C2676       C  0.32891582  0.91557000  0.10134324     0.35500
C2677       C  0.36745713  0.84109745  0.99931393     0.39000
C2678       C  0.40961392  0.93330383  0.08212543    -0.04600
C2679       C  0.42925585  0.94813229  0.10405663     0.02600
C2680       C  0.42999798  0.93753275  0.13536155    -0.04200
C2681       C  0.41521867  0.90864281  0.14233258    -0.00400
C2682       C  0.39773648  0.89270031  0.11945945    -0.03000
C2683       C  0.40575494  0.94642639  0.05138211     0.36300
C2684       C  0.41789740  0.89467988  0.17280996     0.39900
C2685       C  0.44782159  0.97460549  0.09398838     0.39000
C2686       C  0.38444132  0.86231395  0.12598539     0.36000
C2687       C  0.41110144  0.87007766  0.03775395     0.36600
C2688       C  0.28400659  0.89967403  0.05833320     0.39900
N2689       N  0.46265642  0.99556713  0.08568202    -0.38200
N2690       N  0.40266373  0.95685146  0.02687471    -0.39800
N2691       N  0.41958123  0.88336407  0.19705553    -0.37500
N2692       N  0.37429925  0.83790915  0.13122932    -0.39900
N2693       N  0.32201331  0.92944026  0.12324455    -0.39700
N2694       N  0.26058009  0.91082937  0.06484385    -0.37300
N2695       N  0.37904292  0.82388051  0.98240823    -0.38400
N2696       N  0.43736322  0.86614462  0.03380421    -0.40000
C2697       C  0.38049144  0.07934850  0.09758021    -0.05000
C2698       C  0.37825222  0.11199542  0.09708135     0.09200
C2699       C  0.39501528  0.12983219  0.11932123    -0.02300
C2700       C  0.41570339  0.11537979  0.14007889    -0.00600
C2701       C  0.41811328  0.08270480  0.14038813    -0.04200
C2702       C  0.39938797  0.06480982  0.11990982     0.02800
C2703       C  0.35802548  0.12771209  0.07344817     0.09600
C2704       C  0.39010633  0.16299716  0.12151412     0.35500
C2705       C  0.39692612  0.03156957  0.12393466     0.39000
C2706       C  0.32545436  0.12484692  0.07467921    -0.04600
C2707       C  0.30631415  0.13923493  0.05206733     0.02600
C2708       C  0.31973553  0.15773703  0.02758868    -0.04200
C2709       C  0.35243747  0.16486039  0.03134297    -0.00400
C2710       C  0.37138798  0.14771724  0.05153385    -0.03000
C2711       C  0.31153503  0.10764300  0.10022314     0.36300
C2712       C  0.36696398  0.19152487  0.01663042     0.39900
C2713       C  0.27352533  0.13834192  0.05885800     0.39000
C2714       C  0.40505080  0.15079044  0.04971489     0.36000
C2715       C  0.36260318  0.06054638  0.07575225     0.36600
C2716       C  0.43458419  0.13424751  0.16103476     0.39900
N2717       N  0.24822679  0.13685066  0.06789537    -0.38200
N2718       N  0.30047991  0.09400016  0.12055601    -0.39800
N2719       N  0.37988752  0.21299995  0.00672598    -0.37500
N2720       N  0.43185342  0.15314839  0.04824676    -0.39900
N2721       N  0.38587707  0.18938715  0.12323523    -0.39700
N2722       N  0.44974127  0.14939456  0.17756245    -0.37300
N2723       N  0.39372004  0.00520981  0.12776853    -0.38400
N2724       N  0.34813340  0.04534771  0.05867781    -0.40000
C2725       C  0.72897916  0.24682567  0.50111292    -0.05000
C2726       C  0.74995111  0.22239670  0.50263311     0.09200
C2727       C  0.73858772  0.19193917  0.49842631    -0.02300
C2728       C  0.70612714  0.18567199  0.49494121    -0.00600
C2729       C  0.68358830  0.20992392  0.49754033    -0.04200
C2730       C  0.69702654  0.24098850  0.49547030     0.02800
C2731       C  0.78443945  0.22958175  0.50298473     0.09600
C2732       C  0.76068089  0.16675817  0.49805356     0.35500
C2733       C  0.68116952  0.26677981  0.48103237     0.39000
C2734       C  0.79929019  0.24107788  0.52998258    -0.04600
C2735       C  0.83080644  0.25123359  0.52914417     0.02600
C2736       C  0.84875967  0.24821587  0.50148472    -0.04200
C2737       C  0.83326570  0.23659013  0.47435388    -0.00400
C2738       C  0.80143435  0.22789357  0.47516803    -0.03000
C2739       C  0.78192722  0.24231492  0.55877425     0.36300
C2740       C  0.84956384  0.23292837  0.44517769     0.39900
C2741       C  0.84408912  0.26545907  0.55685205     0.39000
C2742       C  0.78581548  0.21721511  0.44704781     0.36000
C2743       C  0.74093469  0.27857487  0.50263048     0.36600
C2744       C  0.69751486  0.15392635  0.48781290     0.39900
N2745       N  0.85444246  0.27689212  0.57901897    -0.38200
N2746       N  0.76799816  0.24311285  0.58168414    -0.39800
N2747       N  0.86212136  0.22998620  0.42166449    -0.37500
N2748       N  0.77312369  0.20851663  0.42486616    -0.39900
N2749       N  0.77837580  0.14679274  0.49766288    -0.39700
N2750       N  0.69379435  0.12810277  0.48122304    -0.37300
N2751       N  0.67021044  0.28774720  0.46860696    -0.38400
N2752       N  0.75057743  0.30374405  0.50381107    -0.40000
C2753       C  0.56553663  0.13898250  0.38031972    -0.05000
C2754       C  0.59461803  0.12999478  0.39242069     0.09200
C2755       C  0.60708834  0.10113978  0.38341751    -0.02300
C2756       C  0.59044188  0.08137503  0.36290066    -0.00600
C2757       C  0.56204381  0.09100072  0.34986696    -0.04200
C2758       C  0.54966608  0.11987921  0.35857509     0.02800
C2759       C  0.60962720  0.14805322  0.41847300     0.09600
C2760       C  0.63668336  0.09136581  0.39606724     0.35500
C2761       C  0.52013470  0.12962401  0.34577120     0.39000
C2762       C  0.60556182  0.13749211  0.44876896    -0.04600
C2763       C  0.62232300  0.15132463  0.47331443     0.02600
C2764       C  0.63704908  0.18159026  0.47010822    -0.04200
C2765       C  0.64439399  0.18945884  0.43852618    -0.00400
C2766       C  0.63040010  0.17296584  0.41315479    -0.03000
C2767       C  0.58564324  0.11053731  0.45448912     0.36300
C2768       C  0.66614711  0.21411585  0.43087929     0.39900
C2769       C  0.62974849  0.13000883  0.49814455     0.39000
C2770       C  0.63628060  0.18245311  0.38142734     0.36000
C2771       C  0.55107359  0.16710198  0.39126385     0.36600
C2772       C  0.60233957  0.05091151  0.35553129     0.39900
N2773       N  0.63630239  0.11168606  0.51649472    -0.38200
N2774       N  0.56988560  0.08904456  0.45891338    -0.39800
N2775       N  0.68371868  0.23282591  0.42251110    -0.37500
N2776       N  0.64076945  0.19017254  0.35613197    -0.39900
N2777       N  0.66025195  0.08347341  0.40616656    -0.39700
N2778       N  0.61185761  0.02658647  0.34982434    -0.37300
N2779       N  0.49654877  0.13758837  0.33578873    -0.38400
N2780       N  0.53870204  0.18917312  0.39982840    -0.40000
C2781       C  0.62359127  0.28421699  0.53489677    -0.05000
C2782       C  0.60701186  0.29843688  0.51114720     0.09200
C2783       C  0.59942300  0.28134091  0.48427099    -0.02300
C2784       C  0.60990695  0.25041963  0.48021342    -0.00600
C2785       C  0.62975030  0.23599903  0.50300077    -0.04200
C2786       C  0.63540529  0.25409015  0.53098722     0.02800
C2787       C  0.59602698  0.33110618  0.51545654     0.09600
C2788       C  0.58055591  0.29596208  0.46046600     0.35500
C2789       C  0.65540328  0.24383259  0.55596310     0.39000
C2790       C  0.61710718  0.35662483  0.51451014    -0.04600
C2791       C  0.60612031  0.38724551  0.51771838     0.02600
C2792       C  0.57418366  0.39247505  0.52245915    -0.04200
C2793       C  0.55356839  0.36678163  0.52492386    -0.00400
C2794       C  0.56452009  0.33634727  0.52209695    -0.03000
C2795       C  0.65011092  0.35142238  0.51057923     0.36300
C2796       C  0.52080971  0.37165138  0.53044140     0.39900
C2797       C  0.62753376  0.41329166  0.51512778     0.39000
C2798       C  0.54347405  0.31021081  0.52649829     0.36000
C2799       C  0.62877861  0.30119747  0.56377839     0.36600
C2800       C  0.59873189  0.23508198  0.45245233     0.39900
N2801       N  0.64504581  0.43377155  0.51312645    -0.38200
N2802       N  0.67655608  0.34748267  0.50806706    -0.39800
N2803       N  0.49491004  0.37546117  0.53614440    -0.37500
N2804       N  0.52703171  0.28911484  0.53017236    -0.39900
N2805       N  0.56535491  0.30744799  0.44162156    -0.39700
N2806       N  0.58791109  0.22512312  0.42984346    -0.37300
N2807       N  0.67093530  0.23846808  0.57720658    -0.38400
N2808       N  0.63285307  0.31486140  0.58663159    -0.40000
C2809       C  0.29906826  0.98265722  0.71080887    -0.05000
C2810       C  0.27987185  0.00409748  0.72586728     0.09200
C2811       C  0.29265275  0.02424933  0.74858087    -0.02300
C2812       C  0.32484819  0.02429057  0.75480634    -0.00600
C2813       C  0.34454899  0.00388178  0.73864214    -0.04200
C2814       C  0.33114784  0.98221964  0.71739399     0.02800
C2815       C  0.24660229  0.00696457  0.71636049     0.09600
C2816       C  0.27261830  0.04496658  0.76566449     0.35500
C2817       C  0.34993355  0.95937866  0.70172641     0.39000
C2818       C  0.22401932  0.98568712  0.72667623    -0.04600
C2819       C  0.19272365  0.98821331  0.71691550     0.02600
C2820       C  0.18270731  0.01376854  0.69793226    -0.04200
C2821       C  0.20610092  0.03735985  0.69165785    -0.00400
C2822       C  0.23772607  0.03209359  0.69804831    -0.03000
C2823       C  0.23318316  0.96089558  0.74737725     0.36300
C2824       C  0.19895135  0.06935717  0.68431254     0.39900
C2825       C  0.17147422  0.96353408  0.72627831     0.39000
C2826       C  0.26137691  0.05378907  0.68699566     0.36000
C2827       C  0.28606431  0.96123681  0.68799860     0.36600
C2828       C  0.33721074  0.04390878  0.77938525     0.39900
N2829       N  0.15576469  0.94312926  0.73433771    -0.38200
N2830       N  0.24040455  0.94119128  0.76395169    -0.39800
N2831       N  0.19425625  0.09521618  0.67917958    -0.37500
N2832       N  0.28003385  0.07116345  0.67814156    -0.39900
N2833       N  0.25693237  0.06156360  0.77954440    -0.39700
N2834       N  0.34674073  0.05883587  0.79972564    -0.37300
N2835       N  0.36385328  0.94033060  0.68922747    -0.38400
N2836       N  0.27657880  0.94368114  0.66980307    -0.40000
C2837       C  0.74897440  0.03949567  0.69425889    -0.05000
C2838       C  0.73620242  0.01214358  0.70714046     0.09200
C2839       C  0.75531682  0.98577228  0.70717191    -0.02300
C2840       C  0.78366134  0.98623356  0.69088775    -0.00600
C2841       C  0.80092083  0.01432346  0.68752148    -0.04200
C2842       C  0.78150475  0.04184383  0.68791833     0.02800
C2843       C  0.70235590  0.01025340  0.71768869     0.09600
C2844       C  0.74530929  0.95712557  0.72166305     0.35500
C2845       C  0.79331342  0.07332173  0.68438680     0.39000
C2846       C  0.68181433  0.98771082  0.70464342    -0.04600
C2847       C  0.65112238  0.98400723  0.71584230     0.02600
C2848       C  0.63817648  0.00633899  0.73614861    -0.04200
C2849       C  0.65833878  0.02935438  0.74889394    -0.00400
C2850       C  0.69032296  0.03059676  0.74065249    -0.03000
C2851       C  0.69164532  0.96893368  0.67852204     0.36300
C2852       C  0.64655938  0.05093937  0.77182500     0.39900
C2853       C  0.63364466  0.95636069  0.70690536     0.39000
C2854       C  0.71039502  0.05325862  0.75592813     0.36000
C2855       C  0.72882054  0.06555557  0.68805741     0.36600
C2856       C  0.78573705  0.96283617  0.66688990     0.39900
N2857       N  0.62057823  0.93361240  0.70033285    -0.38200
N2858       N  0.69952661  0.95388355  0.65778373    -0.39800
N2859       N  0.63713577  0.06807557  0.79014360    -0.37500
N2860       N  0.72536838  0.07202258  0.76843627    -0.39900
N2861       N  0.73737206  0.93418875  0.73322046    -0.39700
N2862       N  0.78660433  0.94429094  0.64742986    -0.37300
N2863       N  0.80127068  0.09892621  0.68162710    -0.38400
N2864       N  0.71283437  0.08631648  0.68297825    -0.40000
C2865       C  0.36860356  0.12550934  0.54318312    -0.05000
C2866       C  0.37007597  0.13808390  0.57310802     0.09200
C2867       C  0.35550685  0.16655969  0.57870031    -0.02300
C2868       C  0.34380791  0.18454670  0.55365403    -0.00600
C2869       C  0.34825159  0.17513964  0.52186894    -0.04200
C2870       C  0.35637819  0.14276158  0.51822289     0.02800
C2871       C  0.38616457  0.12043654  0.59862067     0.09600
C2872       C  0.35411923  0.17823376  0.61030646     0.35500
C2873       C  0.34781867  0.12425702  0.49122874     0.39000
C2874       C  0.41897696  0.11880946  0.59918201    -0.04600
C2875       C  0.43431687  0.10171782  0.62242712     0.02600
C2876       C  0.41714278  0.08445760  0.64446601    -0.04200
C2877       C  0.38421024  0.08562109  0.64359129    -0.00400
C2878       C  0.36884766  0.10355072  0.62082222    -0.03000
C2879       C  0.43714044  0.13391577  0.57516273     0.36300
C2880       C  0.36600102  0.06770386  0.66552707     0.39900
C2881       C  0.46792488  0.10340301  0.62453521     0.39000
C2882       C  0.33514586  0.10369789  0.61928962     0.36000
C2883       C  0.37803520  0.09355583  0.53849537     0.36600
C2884       C  0.32839013  0.21304302  0.56181725     0.39900
N2885       N  0.49470938  0.10559398  0.62619308    -0.38200
N2886       N  0.45191255  0.14531469  0.55582148    -0.39800
N2887       N  0.35128711  0.05342907  0.68292491    -0.37500
N2888       N  0.30827552  0.10402813  0.61767504    -0.39900
N2889       N  0.35299380  0.18753649  0.63549660    -0.39700
N2890       N  0.31576504  0.23489622  0.57059474    -0.37300
N2891       N  0.34004154  0.10809548  0.47105684    -0.38400
N2892       N  0.38512431  0.06804275  0.53469698    -0.40000
C2893       C  0.58054625  0.09505544  0.59222094    -0.05000
C2894       C  0.59232241  0.12468614  0.60065648     0.09200
C2895       C  0.58860045  0.13539536  0.63129175    -0.02300
C2896       C  0.57302689  0.11689928  0.65337854    -0.00600
C2897       C  0.56157636  0.08676540  0.64526774    -0.04200
C2898       C  0.56581327  0.07596182  0.61444962     0.02800
C2899       C  0.60664542  0.14581781  0.57688937     0.09600
C2900       C  0.60014623  0.16606509  0.63988537     0.35500
C2901       C  0.55538980  0.04504905  0.60528385     0.39000
C2902       C  0.58743282  0.16231737  0.55686192    -0.04600
C2903       C  0.60031296  0.18120904  0.53334951     0.02600
C2904       C  0.63373420  0.18537615  0.52982974    -0.04200
C2905       C  0.65254084  0.17107810  0.55351747    -0.00400
C2906       C  0.63897481  0.15065884  0.57567407    -0.03000
C2907       C  0.55382950  0.15908593  0.56017152     0.36300
C2908       C  0.68548093  0.17708863  0.55744244     0.39900
C2909       C  0.57787580  0.19371969  0.51163508     0.39000
C2910       C  0.65848206  0.13359875  0.59709435     0.36000
C2911       C  0.58273478  0.08415585  0.56045561     0.36600
C2912       C  0.56798666  0.12988721  0.68407091     0.39900
N2913       N  0.55813206  0.20233255  0.49563751    -0.38200
N2914       N  0.52716140  0.15643829  0.56296017    -0.39800
N2915       N  0.71156305  0.18135510  0.56303890    -0.37500
N2916       N  0.67389453  0.11982723  0.61409358    -0.39900
N2917       N  0.60941887  0.19046077  0.64678406    -0.39700
N2918       N  0.56420497  0.14041064  0.70848958    -0.37300
N2919       N  0.54701872  0.02047896  0.59786827    -0.38400
N2920       N  0.58351223  0.07450918  0.53538393    -0.40000
C2921       C  0.57430467  0.89448633  0.60939613    -0.05000
C2922       C  0.60286709  0.90738482  0.59938647     0.09200
C2923       C  0.61278031  0.93658875  0.61095288    -0.02300
C2924       C  0.59390496  0.95297235  0.63200551    -0.00600
C2925       C  0.56599898  0.93930850  0.64300690    -0.04200
C2926       C  0.55676081  0.90972817  0.63218696     0.02800
C2927       C  0.62081262  0.89141252  0.57448292     0.09600
C2928       C  0.64216395  0.94985353  0.60076756     0.35500
C2929       C  0.52945158  0.89461062  0.64494103     0.39000
C2930       C  0.61550217  0.89904092  0.54348055    -0.04600
C2931       C  0.63061186  0.88263542  0.51991159     0.02600
C2932       C  0.64422782  0.85291721  0.52618949    -0.04200
C2933       C  0.65579388  0.85032994  0.55739410    -0.00400
C2934       C  0.64359321  0.86936307  0.58141563    -0.03000
C2935       C  0.59538505  0.92468969  0.53581021     0.36300
C2936       C  0.67899872  0.82787454  0.56601989     0.39900
C2937       C  0.63783731  0.90044574  0.49231928     0.39000
C2938       C  0.65263227  0.86473011  0.61352360     0.36000
C2939       C  0.56209913  0.86622992  0.59530868     0.36600
C2940       C  0.60338208  0.98365875  0.64259252     0.39900
N2941       N  0.64446928  0.91562159  0.47120293    -0.38200
N2942       N  0.57926819  0.94511425  0.52989200    -0.39800
N2943       N  0.69781826  0.81072564  0.57408930    -0.37500
N2944       N  0.65961859  0.86092610  0.63917432    -0.39900
N2945       N  0.66568313  0.96028397  0.59262184    -0.39700
N2946       N  0.61108378  0.00812828  0.65096511    -0.37300
N2947       N  0.50807099  0.88202850  0.65541519    -0.38400
N2948       N  0.55153650  0.84408614  0.58398212    -0.40000
C2949       C  0.36485031  0.84045971  0.57658086    -0.05000
C2950       C  0.38415606  0.86690495  0.57244286     0.09200
C2951       C  0.39561112  0.87311795  0.54262562    -0.02300
C2952       C  0.38587423  0.85493587  0.51700284    -0.00600
C2953       C  0.36036890  0.83282352  0.51950452    -0.04200
C2954       C  0.35435717  0.82263734  0.55060532     0.02800
C2955       C  0.39479276  0.88707986  0.59932891     0.09600
C2956       C  0.41910652  0.89738787  0.53846902     0.35500
C2957       C  0.33688472  0.79417716  0.55635557     0.39000
C2958       C  0.41432530  0.87518170  0.62276728    -0.04600
C2959       C  0.42531002  0.89462910  0.64695242     0.02600
C2960       C  0.42103838  0.92706353  0.64552553    -0.04200
C2961       C  0.40145767  0.93911114  0.62223392    -0.00400
C2962       C  0.38733208  0.91899386  0.60010614    -0.03000
C2963       C  0.42432756  0.84321868  0.62148835     0.36300
C2964       C  0.39450881  0.97194012  0.62206370     0.39900
C2965       C  0.44027793  0.88084981  0.67363552     0.39000
C2966       C  0.36511484  0.93111532  0.57800835     0.36000
C2967       C  0.35427477  0.83249604  0.60749425     0.36600
C2968       C  0.40744882  0.85462923  0.49112880     0.39900
N2969       N  0.45144212  0.86931290  0.69507017    -0.38200
N2970       N  0.43248853  0.81777744  0.62060161    -0.39800
N2971       N  0.38886551  0.99810211  0.62207243    -0.37500
N2972       N  0.34729731  0.94071485  0.56042549    -0.39900
N2973       N  0.43767528  0.91676228  0.53508812    -0.39700
N2974       N  0.42596193  0.85427178  0.47170678    -0.37300
N2975       N  0.32320761  0.77140538  0.56116991    -0.38400
N2976       N  0.34597401  0.82621589  0.63222448    -0.40000
C2977       C  0.48475827  0.20650393  0.74553916    -0.05000
C2978       C  0.49352938  0.21659623  0.77565876     0.09200
C2979       C  0.50197071  0.19448725  0.79812954    -0.02300
C2980       C  0.49997262  0.16258411  0.79107732    -0.00600
C2981       C  0.49248751  0.15259226  0.76065607    -0.04200
C2982       C  0.48473134  0.17460850  0.73793814     0.02800
C2983       C  0.49124931  0.25026272  0.78450106     0.09600
C2984       C  0.51246576  0.20461529  0.82861588     0.35500
C2985       C  0.47597828  0.16431090  0.70700723     0.39000
C2986       C  0.46655673  0.26022706  0.80298736    -0.04600
C2987       C  0.46272624  0.29208975  0.81011282     0.02600
C2988       C  0.48529675  0.31540169  0.80020343    -0.04200
C2989       C  0.50977911  0.30402811  0.78032712    -0.00400
C2990       C  0.51274999  0.27208476  0.77330407    -0.03000
C2991       C  0.44391728  0.23719694  0.81362995     0.36300
C2992       C  0.53379860  0.32426404  0.76772011     0.39900
C2993       C  0.43303861  0.29922496  0.82421844     0.39000
C2994       C  0.53880812  0.26124188  0.75497871     0.36000
C2995       C  0.47515309  0.22893268  0.72257350     0.36600
C2996       C  0.50279887  0.14010394  0.81582789     0.39900
N2997       N  0.40877478  0.30341134  0.83492211    -0.38200
N2998       N  0.42608093  0.21874200  0.82202036    -0.39800
N2999       N  0.55404556  0.33840775  0.75686789    -0.37500
N3000       N  0.55956251  0.25253305  0.74048720    -0.39900
N3001       N  0.52105620  0.21270226  0.85285426    -0.39700
N3002       N  0.50414602  0.12243234  0.83589286    -0.37300
N3003       N  0.46885391  0.15597397  0.68239976    -0.38400
N3004       N  0.46752449  0.24689198  0.70427895    -0.40000
C3005       C  0.51418662  0.75355847  0.80688968    -0.05000
C3006       C  0.49294191  0.76401176  0.78465553     0.09200
C3007       C  0.47320066  0.74245730  0.76993762    -0.02300
C3008       C  0.47267818  0.71090525  0.77899711    -0.00600
C3009       C  0.49435493  0.69879886  0.80164918    -0.04200
C3010       C  0.51672627  0.72149477  0.81369363     0.02800
C3011       C  0.49195865  0.79782967  0.77593323     0.09600
C3012       C  0.45292697  0.75312450  0.74513823     0.35500
C3013       C  0.54535938  0.71361596  0.82956339     0.39000
C3014       C  0.51639952  0.81150340  0.75874897    -0.04600
C3015       C  0.51577276  0.84330913  0.75091937     0.02600
C3016       C  0.49044055  0.86210083  0.76014805    -0.04200
C3017       C  0.46537162  0.84776723  0.77651964    -0.00400
C3018       C  0.46622832  0.81598148  0.78422316    -0.03000
C3019       C  0.54205856  0.79252024  0.74853282     0.36300
C3020       C  0.43840112  0.86528600  0.78603130     0.39900
C3021       C  0.54100266  0.85609922  0.73244171     0.39000
C3022       C  0.44011800  0.80183704  0.80039934     0.36000
C3023       C  0.53494923  0.77615103  0.82171904     0.36600
C3024       C  0.44788150  0.69238662  0.76514957     0.39900
N3025       N  0.56119459  0.86620191  0.71775316    -0.38200
N3026       N  0.56252415  0.77736706  0.74046022    -0.39800
N3027       N  0.41652346  0.87870705  0.79350145    -0.37500
N3028       N  0.41882342  0.79089611  0.81277235    -0.39900
N3029       N  0.43681015  0.76172496  0.72549134    -0.39700
N3030       N  0.42687516  0.68072918  0.75265643    -0.37300
N3031       N  0.56903524  0.70896220  0.84146918    -0.38400
N3032       N  0.55167930  0.79410052  0.83318908    -0.40000
C3033       C  0.35761340  0.11463755  0.94633940    -0.05000
C3034       C  0.37083849  0.13473384  0.92433776     0.09200
C3035       C  0.36544811  0.16670508  0.92710964    -0.02300
C3036       C  0.34411849  0.17848315  0.94929291    -0.00600
C3037       C  0.32798511  0.15807040  0.97057580    -0.04200
C3038       C  0.33770829  0.12594113  0.96973841     0.02800
C3039       C  0.39046416  0.12188412  0.89826276     0.09600
C3040       C  0.38321062  0.18782259  0.90755516     0.35500
C3041       C  0.32529260  0.10289947  0.99117408     0.39000
C3042       C  0.38020432  0.12328648  0.86713692    -0.04600
C3043       C  0.39702865  0.10847055  0.84318769     0.02600
C3044       C  0.42314423  0.08956727  0.85029385    -0.04200
C3045       C  0.43516025  0.09144798  0.88112699    -0.00400
C3046       C  0.41911353  0.10766822  0.90465658    -0.03000
C3047       C  0.35225724  0.14024637  0.85955544     0.36300
C3048       C  0.46509642  0.07854750  0.88880845     0.39900
C3049       C  0.38791374  0.11454200  0.81134852     0.39000
C3050       C  0.43237800  0.11017032  0.93562302     0.36000
C3051       C  0.36387188  0.08161985  0.94442002     0.36600
C3052       C  0.34189098  0.21194065  0.95037655     0.39900
N3053       N  0.38059897  0.12000844  0.78608899    -0.38200
N3054       N  0.33025951  0.15411515  0.85331738    -0.39800
N3055       N  0.48910710  0.06871565  0.89535482    -0.37500
N3056       N  0.44302892  0.11219920  0.96026639    -0.39900
N3057       N  0.39750706  0.20464591  0.89215840    -0.39700
N3058       N  0.34167590  0.23878883  0.95022005    -0.37300
N3059       N  0.31530163  0.08395550  0.00743046    -0.38400
N3060       N  0.36897356  0.05537199  0.94312797    -0.40000
C3061       C  0.34382794  0.86807996  0.91835243    -0.05000
C3062       C  0.35273528  0.89936556  0.92043542     0.09200
C3063       C  0.34296093  0.91707138  0.94574078    -0.02300
C3064       C  0.32367480  0.90392416  0.96881040    -0.00600
C3065       C  0.31529297  0.87126497  0.96875173    -0.04200
C3066       C  0.32684455  0.85354941  0.94256729     0.02800
C3067       C  0.37310749  0.91368479  0.89603145     0.09600
C3068       C  0.35315156  0.94928765  0.94809338     0.35500
C3069       C  0.32570742  0.82002277  0.94042526     0.39000
C3070       C  0.36019073  0.93333412  0.87345839    -0.04600
C3071       C  0.37942038  0.94718653  0.85085888     0.02600
C3072       C  0.41163387  0.94123549  0.85031671    -0.04200
C3073       C  0.42435814  0.92072423  0.87221950    -0.00400
C3074       C  0.40529180  0.90745911  0.89537967    -0.03000
C3075       C  0.32704475  0.93926732  0.87341095     0.36300
C3076       C  0.45655278  0.91161059  0.86958773     0.39900
C3077       C  0.36590623  0.96771808  0.82824016     0.39000
C3078       C  0.41876169  0.88736292  0.91857407     0.36000
C3079       C  0.35378894  0.85030180  0.89143157     0.36600
C3080       C  0.31140239  0.92541038  0.99158836     0.39900
N3081       N  0.35467539  0.98393394  0.81026920    -0.38200
N3082       N  0.30065419  0.94419406  0.87317358    -0.39800
N3083       N  0.48201899  0.90371848  0.86701025    -0.37500
N3084       N  0.42951904  0.87132961  0.93708690    -0.39900
N3085       N  0.36141613  0.97488293  0.94991477    -0.39700
N3086       N  0.30171928  0.94386909  0.00840141    -0.37300
N3087       N  0.32646298  0.79335444  0.93745636    -0.38400
N3088       N  0.36188549  0.83617531  0.87012390    -0.40000
C3089       C  0.57656787  0.91484190  0.90090502    -0.05000
C3090       C  0.60075629  0.89600556  0.89015660     0.09200
C3091       C  0.60690623  0.89432526  0.85826084    -0.02300
C3092       C  0.59091306  0.91342934  0.83725150    -0.00600
C3093       C  0.56614042  0.93283114  0.84765519    -0.04200
C3094       C  0.55869293  0.93236251  0.87986025     0.02800
C3095       C  0.62281215  0.88145694  0.91256222     0.09600
C3096       C  0.63043258  0.87311780  0.84719100     0.35500
C3097       C  0.53239278  0.94921470  0.89195803     0.39000
C3098       C  0.61823187  0.85113166  0.92349068    -0.04600
C3099       C  0.63774871  0.83939352  0.94732992     0.02600
C3100       C  0.66235004  0.85846312  0.96049874    -0.04200
C3101       C  0.67185767  0.88352904  0.94063353    -0.00400
C3102       C  0.65050291  0.89711998  0.92020393    -0.03000
C3103       C  0.59247015  0.83263478  0.91126858     0.36300
C3104       C  0.70398465  0.89272376  0.93618766     0.39900
C3105       C  0.63040819  0.80847081  0.95851784     0.39000
C3106       C  0.65772681  0.92683442  0.90591703     0.36000
C3107       C  0.57034235  0.91666104  0.93390914     0.36600
C3108       C  0.60150934  0.91331440  0.80526214     0.39900
N3109       N  0.62357262  0.78369277  0.96644600    -0.38200
N3110       N  0.57195080  0.81780908  0.90161860    -0.39800
N3111       N  0.72923245  0.90073778  0.93125130    -0.37500
N3112       N  0.66337044  0.95050630  0.89455028    -0.39900
N3113       N  0.64895638  0.85597355  0.83846362    -0.39700
N3114       N  0.61033496  0.91301102  0.77991724    -0.37300
N3115       N  0.51120391  0.96214194  0.90190692    -0.38400
N3116       N  0.56509053  0.91857589  0.96014739    -0.40000
C3117       C  0.58279213  0.09448787  0.90250512    -0.05000
C3118       C  0.60047004  0.12015308  0.89259136     0.09200
C3119       C  0.59956907  0.12926469  0.86136445    -0.02300
C3120       C  0.58157259  0.11216976  0.83979238    -0.00600
C3121       C  0.56651114  0.08391472  0.84882747    -0.04200
C3122       C  0.56768466  0.07521101  0.88060260     0.02800
C3123       C  0.62492017  0.13314720  0.91355183     0.09600
C3124       C  0.61814859  0.15571817  0.85128282     0.35500
C3125       C  0.55571472  0.04550411  0.89103213     0.39000
C3126       C  0.65303103  0.11743781  0.91633447    -0.04600
C3127       C  0.67544524  0.12725761  0.93843040     0.02600
C3128       C  0.67012796  0.15436280  0.95775108    -0.04200
C3129       C  0.64662921  0.17428673  0.94563739    -0.00400
C3130       C  0.62176145  0.16196702  0.92796210    -0.03000
C3131       C  0.65831029  0.09028788  0.89688385     0.36300
C3132       C  0.65341832  0.20656623  0.93923214     0.39900
C3133       C  0.70214030  0.10716483  0.94105510     0.39000
C3134       C  0.59462441  0.18053180  0.92147087     0.36000
C3135       C  0.58080388  0.08769355  0.93540534     0.36600
C3136       C  0.57888933  0.12430412  0.80853276     0.39900
N3137       N  0.72244429  0.08988407  0.94220279    -0.38200
N3138       N  0.66240242  0.06882777  0.88129744    -0.39800
N3139       N  0.65792099  0.23223976  0.93272473    -0.37500
N3140       N  0.57299033  0.19524153  0.91600169    -0.39900
N3141       N  0.63306536  0.17674037  0.84331256    -0.39700
N3142       N  0.57692526  0.13439372  0.78376946    -0.37300
N3143       N  0.54654770  0.02187816  0.90001383    -0.38400
N3144       N  0.57869199  0.08272384  0.96167916    -0.40000
loop_ 
_geom_bond_atom_site_label_1 
_geom_bond_atom_site_label_2 
_geom_bond_distance 
_geom_bond_site_symmetry_2 
_ccdc_geom_bond_type 
O1          Zr37   2.443       .  S
O1           C12   1.293       .  A
O2          Zr36   2.454       .  S
O2           C13   1.296       .  A
O3           Zr9   2.471       .  S
O3           C14   1.298       .  A
O4           Zr9   2.449       .  S
O4           C15   1.294       .  A
O5          Zr39   2.442       .  S
O5           C15   1.292       .  A
O6          Zr38   2.441       .  S
O6           C14   1.291   1_565  A
O7           Zr9   2.412       .  S
O7           C13   1.287       .  A
O8           Zr9   2.421       .  S
O8           C12   1.288       .  A
Zr9          O10   2.355       .  S
Zr9          O11   2.332       .  S
Zr9          O19   2.336       .  S
Zr9          O17   2.326       .  S
O10         Zr36   2.346       .  S
O10         Zr39   2.347       .  S
O11         Zr37   2.357       .  S
O11         Zr38   2.343   1_545  S
C12        C3121   1.500       .  S
C13        C2897   1.500       .  S
C14        C2848   1.511       .  S
C15        C2981   1.481       .  S
H16          O17   0.965       .  S
O17         Zr36   2.345       .  S
O17         Zr38   2.335   1_545  S
H18          O19   0.963       .  S
O19         Zr37   2.327       .  S
O19         Zr39   2.347       .  S
O20         Zr36   2.464   1_565  S
O20          C43   1.297       .  A
O21         Zr37   2.447   1_565  S
O21          C44   1.294       .  A
O22         Zr38   2.440       .  S
O22          C45   1.292       .  A
O23         Zr39   2.447       .  S
O23          C46   1.293       .  A
O24         Zr39   2.442       .  S
O24          C47   1.292       .  A
O25         Zr38   2.409       .  S
O25          C48   1.285       .  A
O26         Zr40   2.445       .  S
O26          C49   1.293       .  A
O27         Zr40   2.415       .  S
O27          C50   1.288   1_565  A
O28         Zr38   2.440       .  S
O28          C49   1.292       .  A
O29         Zr39   2.460       .  S
O29          C50   1.297       .  A
O30         Zr36   2.453   1_565  S
O30          C45   1.295       .  A
O31         Zr37   2.474   1_565  S
O31          C48   1.299       .  A
O32         Zr37   2.479       .  S
O32          C47   1.300       .  A
O33         Zr36   2.468       .  S
O33          C46   1.298       .  A
O34         Zr40   2.431       .  S
O34          C43   1.291       .  A
O35         Zr40   2.438       .  S
O35          C44   1.291       .  A
Zr36         O42   2.358   1_545  S
Zr36         O54   2.337       .  S
Zr37         O41   2.353       .  S
Zr37         O52   2.340   1_545  S
Zr38         O42   2.338       .  S
Zr38         O52   2.343       .  S
Zr39         O41   2.345       .  S
Zr39         O54   2.342       .  S
Zr40         O41   2.346   1_565  S
Zr40         O42   2.339       .  S
Zr40         O54   2.348   1_565  S
Zr40         O52   2.327       .  S
C43        C2960   1.493       .  S
C44        C3072   1.485       .  S
C45        C2925   1.481       .  S
C46        C2876   1.499       .  S
C47        C3044   1.527       .  S
C48        C3093   1.517       .  S
C49        C3016   1.510       .  S
C50        C2813   1.491       .  S
H51          O52   0.965       .  S
H53          O54   0.966       .  S
C55        C2729   1.620       .  S
C55        C2764   1.617       .  S
C55        C2785   1.608       .  S
C55        C2904   1.608       .  S
O56         Zr92   2.439       .  S
O56          C67   1.291       .  A
O57         Zr91   2.439       .  S
O57          C68   1.292       .  A
O58         Zr64   2.481       .  S
O58          C69   1.301       .  A
O59         Zr64   2.482   1_565  S
O59          C70   1.302       .  A
O60         Zr94   2.428       .  S
O60          C70   1.290       .  A
O61         Zr93   2.403       .  S
O61          C69   1.284       .  A
O62         Zr64   2.444   1_565  S
O62          C68   1.294       .  A
O63         Zr64   2.451       .  S
O63          C67   1.294       .  A
Zr64         O65   2.347   1_545  S
Zr64         O66   2.351       .  S
Zr64         O74   2.344       .  S
Zr64         O72   2.330       .  S
O65         Zr91   2.346       .  S
O65         Zr94   2.345       .  S
O66         Zr92   2.340       .  S
O66         Zr93   2.340       .  S
C67        C2757   1.482       .  S
C68        C2477   1.509       .  S
C69        C2540   1.517       .  S
C70        C2505   1.517       .  S
H71          O72   0.964       .  S
O72         Zr91   2.331   1_545  S
O72         Zr93   2.340       .  S
H73          O74   0.965       .  S
O74         Zr92   2.341       .  S
O74         Zr94   2.340   1_545  S
O75         Zr91   2.443       .  S
O75          C98   1.293       .  A
O76         Zr92   2.455       .  S
O76          C99   1.295       .  A
O77         Zr93   2.454       .  S
O77         C100   1.294       .  A
O78         Zr94   2.456       .  S
O78         C101   1.295       .  A
O79         Zr94   2.462       .  S
O79         C102   1.297   1_565  A
O80         Zr93   2.463       .  S
O80         C103   1.297       .  A
O81         Zr95   2.468       .  S
O81         C104   1.298       .  A
O82         Zr95   2.457   1_565  S
O82         C105   1.296       .  A
O83         Zr93   2.421       .  S
O83         C104   1.289       .  A
O84         Zr94   2.435       .  S
O84         C105   1.292       .  A
O85         Zr91   2.451       .  S
O85         C100   1.294   1_565  A
O86         Zr92   2.405       .  S
O86         C103   1.286       .  A
O87         Zr92   2.420       .  S
O87         C102   1.288       .  A
O88         Zr91   2.427       .  S
O88         C101   1.289       .  A
O89         Zr95   2.428   1_565  S
O89          C98   1.289       .  A
O90         Zr95   2.416       .  S
O90          C99   1.288       .  A
Zr91         O97   2.343   1_565  S
Zr91        O109   2.341       .  S
Zr92         O96   2.330       .  S
Zr92        O107   2.344       .  S
Zr93         O97   2.345       .  S
Zr93        O107   2.336       .  S
Zr94         O96   2.336   1_565  S
Zr94        O109   2.344       .  S
Zr95         O96   2.350       .  S
Zr95         O97   2.346       .  S
Zr95        O109   2.333   1_545  S
Zr95        O107   2.339       .  S
C98        C2680   1.504       .  S
C99        C2624   1.483       .  S
C100       C2428   1.486       .  S
C101       C2596   1.477       .  S
C102       C2449   1.501       .  S
C103       C2561   1.487       .  S
C104       C2701   1.488       .  S
C105       C2645   1.497       .  S
H106        O107   0.955       .  S
H108        O109   0.964       .  S
C110       C2372   1.601       .  S
C110       C2393   1.614   1_556  S
C110       C2673   1.609   1_556  S
C110       C3065   1.610       .  S
C111       C2309   1.606       .  S
C111       C2337   1.618       .  S
C111       C2652   1.606   1_556  S
C111       C3100   1.613       .  S
C112       C2253   1.615       .  S
C112       C2281   1.614       .  S
C112       C2512   1.614       .  S
C112       C2932   1.611       .  S
C113       C2197   1.609       .  S
C113       C2225   1.622       .  S
C113       C2708   1.605   1_556  S
C113       C3037   1.617       .  S
C114       C2141   1.611       .  S
C114       C2176   1.586       .  S
C114       C2617   1.612   1_556  S
C114       C3128   1.618       .  S
C115       C2085   1.624       .  S
C115       C2120   1.612       .  S
C115       C2533   1.605       .  S
C115       C2869   1.616       .  S
C116       C2029   1.639       .  S
C116       C2057   1.631       .  S
C116       C2484   1.596       .  S
C116       C2953   1.612       .  S
O117       Zr153   2.453       .  S
O117        C128   1.294       .  A
O118       Zr152   2.462       .  S
O118        C129   1.296   1_455  A
O119       Zr125   2.450       .  S
O119        C130   1.295       .  A
O120       Zr125   2.464       .  S
O120        C131   1.296       .  A
O121       Zr155   2.467       .  S
O121        C131   1.297       .  A
O122       Zr154   2.435       .  S
O122        C130   1.291       .  A
O123       Zr125   2.451       .  S
O123        C129   1.293       .  A
O124       Zr125   2.448       .  S
O124        C128   1.293       .  A
Zr125       O126   2.345       .  S
Zr125       O127   2.354       .  S
Zr125       O135   2.350       .  S
Zr125       O133   2.346       .  S
O126       Zr152   2.347   1_655  S
O126       Zr155   2.351       .  S
O127       Zr153   2.341       .  S
O127       Zr154   2.349       .  S
C128       C2260   1.522       .  S
C129       C1777   1.492       .  S
C130       C1861   1.503       .  S
C131       C1973   1.501       .  S
H132        O133   0.965       .  S
O133       Zr152   2.337   1_655  S
O133       Zr154   2.336       .  S
H134        O135   0.965       .  S
O135       Zr153   2.359       .  S
O135       Zr155   2.345       .  S
O136       Zr152   2.454       .  S
O136        C159   1.294       .  A
O137       Zr153   2.466       .  S
O137        C160   1.297       .  A
O138       Zr154   2.453   1_455  S
O138        C161   1.295       .  A
O139       Zr155   2.485   1_455  S
O139        C162   1.302       .  A
O140       Zr155   2.481       .  S
O140        C163   1.300       .  A
O141       Zr154   2.454       .  S
O141        C164   1.295       .  A
O142       Zr156   2.452       .  S
O142        C165   1.295       .  A
O143       Zr156   2.451       .  S
O143        C166   1.295       .  A
O144       Zr154   2.437   1_455  S
O144        C165   1.291       .  A
O145       Zr155   2.444   1_455  S
O145        C166   1.293       .  A
O146       Zr152   2.419       .  S
O146        C161   1.288       .  A
O147       Zr153   2.440       .  S
O147        C164   1.292       .  A
O148       Zr153   2.412       .  S
O148        C163   1.287       .  A
O149       Zr152   2.410       .  S
O149        C162   1.287       .  A
O150       Zr156   2.463       .  S
O150        C159   1.297       .  A
O151       Zr156   2.444       .  S
O151        C160   1.293   1_455  A
Zr152       O158   2.339       .  S
Zr152       O170   2.346       .  S
Zr153       O157   2.341       .  S
Zr153       O168   2.339       .  S
Zr154       O158   2.350   1_655  S
Zr154       O168   2.331       .  S
Zr155       O157   2.347       .  S
Zr155       O170   2.347   1_655  S
Zr156       O157   2.339   1_455  S
Zr156       O158   2.339       .  S
Zr156       O170   2.343       .  S
Zr156       O168   2.351   1_455  S
C159       C2036   1.503       .  S
C160       C1749   1.509       .  S
C161       C1833   1.500       .  S
C162       C2008   1.496       .  S
C163       C1952   1.483       .  S
C164       C1896   1.506       .  S
C165       C1812   1.490       .  S
C166       C1917   1.520       .  S
H167        O168   0.965       .  S
H169        O170   0.965       .  S
O171       Zr207   2.454       .  S
O171        C182   1.294       .  A
O172       Zr206   2.451       .  S
O172        C183   1.295   1_455  A
O173       Zr179   2.431       .  S
O173        C184   1.291       .  A
O174       Zr179   2.423       .  S
O174        C185   1.290       .  A
O175       Zr209   2.444       .  S
O175        C185   1.294       .  A
O176       Zr208   2.459       .  S
O176        C184   1.296       .  A
O177       Zr179   2.448       .  S
O177        C183   1.294       .  A
O178       Zr179   2.451       .  S
O178        C182   1.294       .  A
Zr179       O180   2.349       .  S
Zr179       O181   2.336       .  S
Zr179       O189   2.344       .  S
Zr179       O187   2.337       .  S
O180       Zr206   2.334   1_655  S
O180       Zr209   2.332       .  S
O181       Zr207   2.340       .  S
O181       Zr208   2.337       .  S
C182       C2736   1.522       .  S
C183       C1497   1.492       .  S
C184       C1672   1.488       .  S
C185       C1553   1.489       .  S
H186        O187   0.965       .  S
O187       Zr206   2.350   1_655  S
O187       Zr208   2.350       .  S
H188        O189   0.966       .  S
O189       Zr207   2.333       .  S
O189       Zr209   2.348       .  S
O190       Zr206   2.435       .  S
O190        C213   1.290       .  A
O191       Zr207   2.444       .  S
O191        C214   1.293       .  A
O192       Zr208   2.439   1_455  S
O192        C215   1.292       .  A
O193       Zr209   2.454   1_455  S
O193        C216   1.295       .  A
O194       Zr209   2.438       .  S
O194        C217   1.291       .  A
O195       Zr208   2.451       .  S
O195        C218   1.295       .  A
O196       Zr210   2.453       .  S
O196        C219   1.295       .  A
O197       Zr210   2.440       .  S
O197        C220   1.293       .  A
O198       Zr208   2.444   1_455  S
O198        C219   1.293       .  A
O199       Zr209   2.419   1_455  S
O199        C220   1.289       .  A
O200       Zr206   2.429       .  S
O200        C215   1.291       .  A
O201       Zr207   2.413       .  S
O201        C218   1.287       .  A
O202       Zr207   2.429       .  S
O202        C217   1.291       .  A
O203       Zr206   2.456       .  S
O203        C216   1.295       .  A
O204       Zr210   2.471       .  S
O204        C213   1.298       .  A
O205       Zr210   2.467       .  S
O205        C214   1.298   1_455  A
Zr206       O212   2.345       .  S
Zr206       O224   2.336       .  S
Zr207       O211   2.330       .  S
Zr207       O222   2.348       .  S
Zr208       O212   2.344   1_655  S
Zr208       O222   2.351       .  S
Zr209       O211   2.336       .  S
Zr209       O224   2.348   1_655  S
Zr210       O211   2.342   1_455  S
Zr210       O212   2.338       .  S
Zr210       O224   2.351       .  S
Zr210       O222   2.343   1_455  S
C213       C2092   1.524       .  S
C214       C1476   1.514       .  S
C215       C1637   1.503       .  S
C216       C1581   1.513       .  S
C217       C1525   1.485       .  S
C218       C1693   1.489       .  S
C219       C1721   1.489       .  S
C220       C1609   1.479       .  S
H221        O222   0.966       .  S
H223        O224   0.966       .  S
C225       C1420   1.616       .  S
C225       C1441   1.613       .  S
C225       C1560   1.607       .  S
C225       C1868   1.612       .  S
C226       C1357   1.617       .  S
C226       C1392   1.604       .  S
C226       C1588   1.621       .  S
C226       C1840   1.611       .  S
C227       C1336   1.615       .  S
C227       C1700   1.612       .  S
C227       C1945   1.596   1_545  S
C227       C2456   1.593       .  S
C228       C1301   1.602       .  S
C228       C1665   1.589       .  S
C228       C1980   1.632   1_545  S
C228       C2841   1.626       .  S
C229       C1252   1.610       .  S
C229       C1280   1.608       .  S
C229       C1532   1.607       .  S
C229       C1889   1.606       .  S
C230       C1189   1.615       .  S
C230       C1217   1.598       .  S
C230       C1616   1.601       .  S
C230       C1805   1.614       .  S
C231       C1168   1.609       .  S
C231       C1728   1.612       .  S
C231       C1924   1.614   1_545  S
C231       C2421   1.609       .  S
C232       C1140   1.608       .  S
C232       C1644   1.595       .  S
C232       C2001   1.614   1_545  S
C232       C2820   1.593       .  S
O233       Zr269   2.451       .  S
O233        C244   1.294       .  A
O234       Zr268   2.435       .  S
O234        C245   1.290       .  A
O235       Zr241   2.442       .  S
O235        C246   1.293       .  A
O236       Zr241   2.421       .  S
O236        C247   1.289       .  A
O237       Zr271   2.450   1_554  S
O237        C247   1.295       .  A
O238       Zr270   2.443   1_554  S
O238        C246   1.293       .  A
O239       Zr241   2.453       .  S
O239        C245   1.295       .  A
O240       Zr241   2.455       .  S
O240        C244   1.294   1_554  A
Zr241       O242   2.342       .  S
Zr241       O243   2.329   1_554  S
Zr241       O251   2.353   1_554  S
Zr241       O249   2.337       .  S
O242       Zr268   2.332       .  S
O242       Zr271   2.338   1_554  S
O243       Zr269   2.340       .  S
O243       Zr270   2.331       .  S
C244       C2316   1.492       .  S
C245       C1245   1.506       .  S
C246        C944   1.499       .  S
C247       C1112   1.474       .  S
H248        O249   0.965       .  S
O249       Zr268   2.335       .  S
O249       Zr270   2.344   1_554  S
H250        O251   0.966       .  S
O251       Zr269   2.343       .  S
O251       Zr271   2.355       .  S
O252       Zr268   2.425       .  S
O252        C275   1.288   1_554  A
O253       Zr269   2.455       .  S
O253        C276   1.296       .  A
O254       Zr270   2.454   1_554  S
O254        C277   1.295       .  A
O255       Zr271   2.461   1_554  S
O255        C278   1.297       .  A
O256       Zr271   2.461       .  S
O256        C279   1.296       .  A
O257       Zr270   2.433       .  S
O257        C280   1.292       .  A
O258       Zr272   2.459       .  S
O258        C281   1.296       .  A
O259       Zr272   2.455       .  S
O259        C282   1.296       .  A
O260       Zr270   2.441       .  S
O260        C281   1.292       .  A
O261       Zr271   2.444       .  S
O261        C282   1.294       .  A
O262       Zr268   2.408       .  S
O262        C277   1.286       .  A
O263       Zr269   2.434       .  S
O263        C280   1.291       .  A
O264       Zr269   2.456       .  S
O264        C279   1.295       .  A
O265       Zr268   2.412       .  S
O265        C278   1.287       .  A
O266       Zr272   2.456       .  S
O266        C275   1.295       .  A
O267       Zr272   2.441       .  S
O267        C276   1.292       .  A
Zr268       O274   2.330   1_554  S
Zr268       O286   2.331   1_554  S
Zr269       O273   2.334       .  S
Zr269       O284   2.353       .  S
Zr270       O274   2.332       .  S
Zr270       O284   2.358       .  S
Zr271       O273   2.340       .  S
Zr271       O286   2.356       .  S
Zr272       O273   2.350       .  S
Zr272       O274   2.334       .  S
Zr272       O286   2.347       .  S
Zr272       O284   2.349       .  S
C275       C2148   1.514       .  S
C276       C1413   1.490       .  S
C277        C909   1.495       .  S
C278       C1021   1.492       .  S
C279       C1077   1.525       .  S
C280        C972   1.495       .  S
C281        C993   1.486       .  S
C282       C1049   1.500       .  S
H283        O284   0.966       .  S
H285        O286   0.965       .  S
O287       Zr323   2.438       .  S
O287        C298   1.292   1_556  A
O288       Zr322   2.462       .  S
O288        C299   1.297       .  A
O289       Zr295   2.445       .  S
O289        C300   1.293       .  A
O290       Zr295   2.469       .  S
O290        C301   1.298       .  A
O291       Zr325   2.418       .  S
O291        C301   1.287       .  A
O292       Zr324   2.448       .  S
O292        C300   1.294       .  A
O293       Zr295   2.433       .  S
O293        C299   1.291       .  A
O294       Zr295   2.430       .  S
O294        C298   1.291       .  A
Zr295       O296   2.330       .  S
Zr295       O297   2.348       .  S
Zr295       O305   2.338       .  S
Zr295       O303   2.354       .  S
O296       Zr322   2.338       .  S
O296       Zr325   2.342       .  S
O297       Zr323   2.340   1_554  S
O297       Zr324   2.350       .  S
C298       C2365   1.494   1_554  S
C299       C1196   1.502       .  S
C300        C748   1.482       .  S
C301        C860   1.508       .  S
H302        O303   0.967       .  S
O303       Zr322   2.338       .  S
O303       Zr324   2.340       .  S
H304        O305   0.965       .  S
O305       Zr323   2.344   1_554  S
O305       Zr325   2.335       .  S
O306       Zr322   2.464       .  S
O306        C329   1.296       .  A
O307       Zr323   2.462       .  S
O307        C330   1.295       .  A
O308       Zr324   2.469       .  S
O308        C331   1.298       .  A
O309       Zr325   2.476       .  S
O309        C332   1.299       .  A
O310       Zr325   2.462   1_556  S
O310        C333   1.297       .  A
O311       Zr324   2.458   1_556  S
O311        C334   1.296       .  A
O312       Zr326   2.443       .  S
O312        C335   1.292       .  A
O313       Zr326   2.445       .  S
O313        C336   1.293       .  A
O314       Zr324   2.439   1_556  S
O314        C335   1.292       .  A
O315       Zr325   2.433   1_556  S
O315        C336   1.292       .  A
O316       Zr322   2.407       .  S
O316        C331   1.286       .  A
O317       Zr323   2.420       .  S
O317        C334   1.289       .  A
O318       Zr323   2.414       .  S
O318        C333   1.287       .  A
O319       Zr322   2.394       .  S
O319        C332   1.283       .  A
O320       Zr326   2.429       .  S
O320        C329   1.290   1_556  A
O321       Zr326   2.451       .  S
O321        C330   1.294       .  A
Zr322       O328   2.336       .  S
Zr322       O340   2.344       .  S
Zr323       O327   2.333       .  S
Zr323       O338   2.330       .  S
Zr324       O328   2.345       .  S
Zr324       O338   2.344   1_554  S
Zr325       O327   2.347   1_554  S
Zr325       O340   2.327       .  S
Zr326       O327   2.334       .  S
Zr326       O328   2.345   1_556  S
Zr326       O340   2.346   1_556  S
Zr326       O338   2.337       .  S
C329       C2204   1.481       .  S
C330       C1364   1.494       .  S
C331        C720   1.483       .  S
C332        C881   1.476       .  S
C333        C825   1.498       .  S
C334        C769   1.491       .  S
C335        C685   1.518       .  S
C336        C797   1.502       .  S
H337        O338   0.964       .  S
H339        O340   0.972       .  S
C341        C657   1.611   1_655  S
C341        C776   1.603   1_655  S
C341       C1084   1.616       .  S
C341       C1784   1.615       .  S
C342        C636   1.617   1_655  S
C342        C692   1.600   1_655  S
C342       C1056   1.616       .  S
C342       C1504   1.622       .  S
C343        C608   1.600       .  S
C343        C832   1.606       .  S
C343        C965   1.604       .  S
C343       C3009   1.617       .  S
C344        C573   1.594       .  S
C344        C853   1.607       .  S
C344        C937   1.613       .  S
C344       C2589   1.598       .  S
C345        C545   1.611       .  S
C345        C713   1.615   1_655  S
C345       C1028   1.611       .  S
C345       C1469   1.626       .  S
C346        C524   1.611       .  S
C346        C741   1.606   1_655  S
C346       C1105   1.606       .  S
C346       C1756   1.609       .  S
C347        C489   1.610       .  S
C347        C804   1.608       .  S
C347       C1000   1.616       .  S
C347       C2988   1.612       .  S
C348        C461   1.609       .  S
C348        C888   1.593       .  S
C348        C916   1.605       .  S
C348       C2568   1.584       .  S
O349       Zr385   2.494       .  S
O349        C360   1.302       .  A
O350       Zr384   2.448       .  S
O350        C361   1.293       .  A
O351       Zr357   2.486       .  S
O351        C362   1.300       .  A
O352       Zr357   2.495       .  S
O352        C363   1.301       .  A
O353       Zr387   2.374       .  S
O353        C363   1.275       .  A
O354       Zr386   2.391       .  S
O354        C362   1.282       .  A
O355       Zr357   2.405       .  S
O355        C361   1.285       .  A
O356       Zr357   2.388       .  S
O356        C360   1.282       .  A
Zr357       O358   2.335       .  S
Zr357       O359   2.348       .  S
Zr357       O367   2.347       .  S
Zr357       O365   2.340       .  S
O358       Zr384   2.327       .  S
O358       Zr387   2.324       .  S
O359       Zr385   2.338       .  S
O359       Zr386   2.338       .  S
C360       C2792   1.482       .  S
C361        C468   1.467       .  S
C362       C2113   1.509       .  S
C363       C1273   1.503       .  S
H364        O365   0.965       .  S
O365       Zr384   2.332       .  S
O365       Zr386   2.336       .  S
H366        O367   0.966       .  S
O367       Zr385   2.347       .  S
O367       Zr387   2.352       .  S
O368       Zr384   2.469       .  S
O368        C391   1.296       .  A
O369       Zr385   2.481       .  S
O369        C392   1.300       .  A
O370       Zr386   2.478       .  S
O370        C393   1.299       .  A
O371       Zr387   2.477       .  S
O371        C394   1.298       .  A
O372       Zr387   2.477       .  S
O372        C395   1.298       .  A
O373       Zr386   2.505       .  S
O373        C396   1.304       .  A
O374       Zr388   2.474       .  S
O374        C397   1.298       .  A
O375       Zr388   2.479       .  S
O375        C398   1.299       .  A
O376       Zr386   2.397       .  S
O376        C397   1.285       .  A
O377       Zr387   2.394       .  S
O377        C398   1.285       .  A
O378       Zr384   2.376       .  S
O378        C393   1.280       .  A
O379       Zr385   2.401       .  S
O379        C396   1.284       .  A
O380       Zr385   2.394       .  S
O380        C395   1.284       .  A
O381       Zr384   2.385       .  S
O381        C394   1.282       .  A
O382       Zr388   2.407       .  S
O382        C391   1.286       .  A
O383       Zr388   2.381       .  S
O383        C392   1.283       .  A
Zr384       O390   2.325       .  S
Zr384       O402   2.323       .  S
Zr385       O389   2.342       .  S
Zr385       O400   2.347       .  S
Zr386       O390   2.335       .  S
Zr386       O400   2.337       .  S
Zr387       O389   2.331       .  S
Zr387       O402   2.331       .  S
Zr388       O389   2.339       .  S
Zr388       O390   2.331       .  S
Zr388       O402   2.331       .  S
Zr388       O400   2.344       .  S
C391       C2064   1.478       .  S
C392        C601   1.488       .  S
C393       C1224   1.492       .  S
C394        C580   1.496       .  S
C395       C1448   1.477       .  S
C396        C496   1.492       .  S
C397       C1385   1.498       .  S
C398       C2288   1.498       .  S
H399        O400   0.965       .  S
H401        O402   0.965       .  S
O403       Zr439   2.474       .  S
O403        C414   1.297       .  A
O404       Zr438   2.458   1_455  S
O404        C415   1.294       .  A
O405       Zr411   2.504       .  S
O405        C416   1.303       .  A
O406       Zr411   2.499   1_545  S
O406        C417   1.304       .  A
O407       Zr441   2.408       .  S
O407        C417   1.287   1_554  A
O408       Zr440   2.362       .  S
O408        C416   1.273   1_655  A
O409       Zr411   2.398   1_545  S
O409        C415   1.285       .  A
O410       Zr411   2.412       .  S
O410        C414   1.286   1_556  A
Zr411       O412   2.355   1_565  S
Zr411       O413   2.340       .  S
Zr411       O421   2.342   1_566  S
Zr411       O419   2.346   1_455  S
O412       Zr438   2.340   1_455  S
O412       Zr441   2.344   1_556  S
O413       Zr439   2.328   1_556  S
O413       Zr440   2.348   1_455  S
C414       C2400   1.483       .  S
C415       C1133   1.468       .  S
C416        C664   1.518       .  S
C417       C2232   1.497       .  S
H418        O419   0.965       .  S
O419       Zr438   2.329   1_565  S
O419       Zr440   2.331       .  S
H420        O421   0.966       .  S
O421       Zr439   2.327   1_545  S
O421       Zr441   2.346       .  S
O422       Zr438   2.483       .  S
O422        C445   1.299       .  A
O423       Zr439   2.446   1_655  S
O423        C446   1.292       .  A
O424       Zr440   2.529       .  S
O424        C447   1.309       .  A
O425       Zr441   2.490   1_556  S
O425        C448   1.301       .  A
O426       Zr441   2.483       .  S
O426        C449   1.300       .  A
O427       Zr440   2.500   1_554  S
O427        C450   1.304       .  A
O428       Zr442   2.490   1_565  S
O428        C451   1.301       .  A
O429       Zr442   2.482       .  S
O429        C452   1.300       .  A
O430       Zr440   2.409       .  S
O430        C451   1.288   1_556  A
O431       Zr441   2.410       .  S
O431        C452   1.287   1_455  A
O432       Zr438   2.363       .  S
O432        C447   1.276   1_545  A
O433       Zr439   2.383   1_655  S
O433        C450   1.282       .  A
O434       Zr439   2.383       .  S
O434        C449   1.280   1_565  A
O435       Zr438   2.378       .  S
O435        C448   1.279   1_655  A
O436       Zr442   2.393       .  S
O436        C445   1.284   1_554  A
O437       Zr442   2.425       .  S
O437        C446   1.290   1_545  A
Zr438       O444   2.325       .  S
Zr438       O456   2.321   1_556  S
Zr439       O443   2.337   1_465  S
Zr439       O454   2.346   1_455  S
Zr440       O444   2.321   1_565  S
Zr440       O454   2.344   1_556  S
Zr441       O443   2.346   1_455  S
Zr441       O456   2.346   1_455  S
Zr442       O443   2.344       .  S
Zr442       O444   2.337   1_554  S
Zr442       O456   2.352       .  S
Zr442       O454   2.343   1_545  S
C445       C2169   1.484       .  S
C446       C1329   1.476       .  S
C447       C1308   1.515       .  S
C448        C629   1.501       .  S
C449       C1161   1.503       .  S
C450        C517   1.492       .  S
C451       C2344   1.509       .  S
C452        C552   1.481       .  S
H453        O454   0.967       .  S
H455        O456   0.965       .  S
C457        C458   1.401       .  A
C457        C462   1.406       .  A
C457        C475   1.457       .  S
C458        C463   1.496       .  S
C458        C459   1.401       .  A
C459        C460   1.415       .  A
C459        C464   1.452       .  S
C460        C461   1.451       .  A
C460        C476   1.453       .  S
C461        C462   1.444       .  A
C462        C465   1.447       .  S
C463        C466   1.414       .  A
C463        C470   1.415       .  A
C464        N481   1.157       .  T
C465        N483   1.157       .  T
C466        C467   1.407       .  A
C466        C471   1.449       .  S
C467        C468   1.408       .  A
C467        C473   1.453       .  S
C468        C469   1.409       .  A
C469        C470   1.407       .  A
C469        C472   1.452       .  S
C470        C474   1.452       .  S
C471        N478   1.157       .  T
C472        N479   1.158       .  T
C473        N477   1.157       .  T
C474        N480   1.157       .  T
C475        N484   1.157       .  T
C476        N482   1.157       .  T
C485        C486   1.400       .  A
C485        C490   1.416       .  A
C485        C503   1.456       .  S
C486        C491   1.501       .  S
C486        C487   1.397       .  A
C487        C488   1.417       .  A
C487        C492   1.455       .  S
C488        C489   1.452       .  A
C488        C504   1.451       .  S
C489        C490   1.450       .  A
C490        C493   1.450       .  S
C491        C494   1.407       .  A
C491        C498   1.412       .  A
C492        N509   1.157       .  T
C493        N511   1.158       .  T
C494        C495   1.409       .  A
C494        C499   1.453       .  S
C495        C496   1.418       .  A
C495        C501   1.445       .  S
C496        C497   1.415       .  A
C497        C498   1.415       .  A
C497        C500   1.450       .  S
C498        C502   1.449       .  S
C499        N506   1.157       .  T
C500        N507   1.157       .  T
C501        N505   1.155       .  T
C502        N508   1.157       .  T
C503        N512   1.157       .  T
C504        N510   1.157       .  T
C513        C514   1.410       .  A
C513        C518   1.413       .  A
C513        C531   1.452       .  S
C514        C519   1.497       .  S
C514        C515   1.406       .  A
C515        C516   1.406       .  A
C515        C520   1.453       .  S
C516        C517   1.421       .  A
C516        C532   1.449       .  S
C517        C518   1.414       .  A
C518        C521   1.442   1_554  S
C519        C522   1.397   1_655  A
C519        C526   1.394       .  A
C520        N537   1.157       .  T
C521        N539   1.154       .  T
C522        C523   1.414       .  A
C522        C527   1.456       .  S
C523        C524   1.451   1_455  A
C523        C529   1.450       .  S
C524        C525   1.452       .  A
C525        C526   1.418       .  A
C525        C528   1.440       .  S
C526        C530   1.459       .  S
C527        N534   1.157       .  T
C528        N535   1.156       .  T
C529        N533   1.157       .  T
C530        N536   1.157       .  T
C531        N540   1.157       .  T
C532        N538   1.155       .  T
C541        C542   1.406   1_455  A
C541        C546   1.422       .  A
C541        C559   1.455       .  S
C542        C547   1.508       .  S
C542        C543   1.399       .  A
C543        C544   1.417       .  A
C543        C548   1.455       .  S
C544        C545   1.452       .  A
C544        C560   1.451       .  S
C545        C546   1.446   1_655  A
C546        C549   1.446       .  S
C547        C550   1.418       .  A
C547        C554   1.413       .  A
C548        N565   1.157       .  T
C549        N567   1.158       .  T
C550        C551   1.414       .  A
C550        C555   1.449       .  S
C551        C552   1.407       .  A
C551        C557   1.448       .  S
C552        C553   1.413       .  A
C553        C554   1.409       .  A
C553        C556   1.452       .  S
C554        C558   1.451       .  S
C555        N562   1.157       .  T
C556        N563   1.157   1_554  T
C557        N561   1.156       .  T
C558        N564   1.157       .  T
C559        N568   1.157       .  T
C560        N566   1.157       .  T
C569        C570   1.400       .  A
C569        C574   1.402       .  A
C569        C587   1.454       .  S
C570        C575   1.492       .  S
C570        C571   1.405       .  A
C571        C572   1.418       .  A
C571        C576   1.452       .  S
C572        C573   1.447       .  A
C572        C588   1.454       .  S
C573        C574   1.434       .  A
C574        C577   1.448       .  S
C575        C578   1.406       .  A
C575        C582   1.409       .  A
C576        N593   1.157       .  T
C577        N595   1.157       .  T
C578        C579   1.402       .  A
C578        C583   1.453       .  S
C579        C580   1.424       .  A
C579        C585   1.454       .  S
C580        C581   1.417       .  A
C581        C582   1.415       .  A
C581        C584   1.446       .  S
C582        C586   1.449       .  S
C583        N590   1.157       .  T
C584        N591   1.156       .  T
C585        N589   1.157       .  T
C586        N592   1.157       .  T
C587        N596   1.157       .  T
C588        N594   1.158       .  T
C597        C598   1.415       .  A
C597        C602   1.413       .  A
C597        C615   1.450       .  S
C598        C603   1.492       .  S
C598        C599   1.404       .  A
C599        C600   1.399       .  A
C599        C604   1.456       .  S
C600        C601   1.421       .  A
C600        C616   1.449       .  S
C601        C602   1.414       .  A
C602        C605   1.450       .  S
C603        C606   1.401       .  A
C603        C610   1.398       .  A
C604        N621   1.157       .  T
C605        N623   1.157       .  T
C606        C607   1.412       .  A
C606        C611   1.457       .  S
C607        C608   1.446       .  A
C607        C613   1.451       .  S
C608        C609   1.451       .  A
C609        C610   1.413       .  A
C609        C612   1.453       .  S
C610        C614   1.457       .  S
C611        N618   1.157       .  T
C612        N619   1.158       .  T
C613        N617   1.157       .  T
C614        N620   1.157       .  T
C615        N624   1.157       .  T
C616        N622   1.155       .  T
C625        C626   1.420       .  A
C625        C630   1.419       .  A
C625        C643   1.450       .  S
C626        C631   1.509       .  S
C626        C627   1.405       .  A
C627        C628   1.400       .  A
C627        C632   1.455       .  S
C628        C629   1.428       .  A
C628        C644   1.453       .  S
C629        C630   1.417       .  A
C630        C633   1.450       .  S
C631        C634   1.397       .  A
C631        C638   1.409   1_455  A
C632        N649   1.157       .  T
C633        N651   1.157   1_556  T
C634        C635   1.419       .  A
C634        C639   1.458       .  S
C635        C636   1.463       .  A
C635        C641   1.454       .  S
C636        C637   1.436   1_455  A
C637        C638   1.417       .  A
C637        C640   1.450       .  S
C638        C642   1.456       .  S
C639        N646   1.157       .  T
C640        N647   1.157       .  T
C641        N645   1.158       .  T
C642        N648   1.157       .  T
C643        N652   1.157       .  T
C644        N650   1.158   1_455  T
C653        C654   1.401   1_655  A
C653        C658   1.415       .  A
C653        C671   1.453       .  S
C654        C659   1.501       .  S
C654        C655   1.399       .  A
C655        C656   1.410       .  A
C655        C660   1.457       .  S
C656        C657   1.452       .  A
C656        C672   1.446       .  S
C657        C658   1.449   1_455  A
C658        C661   1.451       .  S
C659        C662   1.401   1_455  A
C659        C666   1.414       .  A
C660        N677   1.157       .  T
C661        N679   1.157       .  T
C662        C663   1.402       .  A
C662        C667   1.456       .  S
C663        C664   1.443   1_655  A
C663        C669   1.461       .  S
C664        C665   1.421       .  A
C665        C666   1.419       .  A
C665        C668   1.450       .  S
C666        C670   1.451       .  S
C667        N674   1.157       .  T
C668        N675   1.158       .  T
C669        N673   1.158       .  T
C670        N676   1.157       .  T
C671        N680   1.157       .  T
C672        N678   1.157       .  T
C681        C682   1.411       .  A
C681        C686   1.412       .  A
C681        C699   1.453       .  S
C682        C687   1.509       .  S
C682        C683   1.411       .  A
C683        C684   1.412       .  A
C683        C688   1.452       .  S
C684        C685   1.430       .  A
C684        C700   1.453       .  S
C685        C686   1.427       .  A
C686        C689   1.454       .  S
C687        C690   1.407       .  A
C687        C694   1.402       .  A
C688        N705   1.157       .  T
C689        N707   1.158       .  T
C690        C691   1.423       .  A
C690        C695   1.454       .  S
C691        C692   1.443       .  A
C691        C697   1.446       .  S
C692        C693   1.450       .  A
C693        C694   1.409       .  A
C693        C696   1.453       .  S
C694        C698   1.459       .  S
C695        N702   1.157       .  T
C696        N703   1.157   1_455  T
C697        N701   1.157       .  T
C698        N704   1.157       .  T
C699        N708   1.157       .  T
C700        N706   1.158       .  T
C709        C710   1.395       .  A
C709        C714   1.407       .  A
C709        C727   1.459       .  S
C710        C715   1.501       .  S
C710        C711   1.406       .  A
C711        C712   1.426       .  A
C711        C716   1.452       .  S
C712        C713   1.441       .  A
C712        C728   1.446       .  S
C713        C714   1.450       .  A
C714        C717   1.446   1_455  S
C715        C718   1.413       .  A
C715        C722   1.411       .  A
C716        N733   1.157       .  T
C717        N735   1.155       .  T
C718        C719   1.413       .  A
C718        C723   1.450       .  S
C719        C720   1.414       .  A
C719        C725   1.451       .  S
C720        C721   1.411       .  A
C721        C722   1.409       .  A
C721        C724   1.447       .  S
C722        C726   1.451       .  S
C723        N730   1.157       .  T
C724        N731   1.156   1_554  T
C725        N729   1.157       .  T
C726        N732   1.157       .  T
C727        N736   1.157       .  T
C728        N734   1.157       .  T
C737        C738   1.404       .  A
C737        C742   1.423       .  A
C737        C755   1.455       .  S
C738        C743   1.508       .  S
C738        C739   1.403       .  A
C739        C740   1.412       .  A
C739        C744   1.458       .  S
C740        C741   1.448       .  A
C740        C756   1.451       .  S
C741        C742   1.446       .  A
C742        C745   1.444       .  S
C743        C746   1.417       .  A
C743        C750   1.416       .  A
C744        N761   1.157       .  T
C745        N763   1.157       .  T
C746        C747   1.413       .  A
C746        C751   1.450       .  S
C747        C748   1.411       .  A
C747        C753   1.450       .  S
C748        C749   1.410       .  A
C749        C750   1.410       .  A
C749        C752   1.451       .  S
C750        C754   1.451       .  S
C751        N758   1.157       .  T
C752        N759   1.157       .  T
C753        N757   1.157       .  T
C754        N760   1.157       .  T
C755        N764   1.157       .  T
C756        N762   1.157   1_455  T
C765        C766   1.408       .  A
C765        C770   1.410       .  A
C765        C783   1.450       .  S
C766        C771   1.490       .  S
C766        C767   1.405       .  A
C767        C768   1.406       .  A
C767        C772   1.453       .  S
C768        C769   1.416       .  A
C768        C784   1.442       .  S
C769        C770   1.420       .  A
C770        C773   1.452       .  S
C771        C774   1.397       .  A
C771        C778   1.395       .  A
C772        N789   1.157       .  T
C773        N791   1.157       .  T
C774        C775   1.416       .  A
C774        C779   1.455       .  S
C775        C776   1.451       .  A
C775        C781   1.451       .  S
C776        C777   1.453       .  A
C777        C778   1.409       .  A
C777        C780   1.453       .  S
C778        C782   1.458       .  S
C779        N786   1.157       .  T
C780        N787   1.158   1_455  T
C781        N785   1.158       .  T
C782        N788   1.157       .  T
C783        N792   1.157       .  T
C784        N790   1.153       .  T
C793        C794   1.408       .  A
C793        C798   1.411       .  A
C793        C811   1.451       .  S
C794        C799   1.496       .  S
C794        C795   1.405       .  A
C795        C796   1.410       .  A
C795        C800   1.452       .  S
C796        C797   1.425       .  A
C796        C812   1.451       .  S
C797        C798   1.424       .  A
C798        C801   1.453       .  S
C799        C802   1.397       .  A
C799        C806   1.396       .  A
C800        N817   1.157       .  T
C801        N819   1.158       .  T
C802        C803   1.414       .  A
C802        C807   1.453       .  S
C803        C804   1.450       .  A
C803        C809   1.453       .  S
C804        C805   1.454       .  A
C805        C806   1.415       .  A
C805        C808   1.446       .  S
C806        C810   1.459       .  S
C807        N814   1.157       .  T
C808        N815   1.157       .  T
C809        N813   1.157       .  T
C810        N816   1.157       .  T
C811        N820   1.157       .  T
C812        N818   1.157       .  T
C821        C822   1.409       .  A
C821        C826   1.411       .  A
C821        C839   1.451       .  S
C822        C827   1.497       .  S
C822        C823   1.406       .  A
C823        C824   1.409       .  A
C823        C828   1.453       .  S
C824        C825   1.425       .  A
C824        C840   1.451       .  S
C825        C826   1.419       .  A
C826        C829   1.451       .  S
C827        C830   1.394       .  A
C827        C834   1.399       .  A
C828        N845   1.157       .  T
C829        N847   1.157       .  T
C830        C831   1.411       .  A
C830        C835   1.458       .  S
C831        C832   1.453       .  A
C831        C837   1.450       .  S
C832        C833   1.449       .  A
C833        C834   1.420       .  A
C833        C836   1.447       .  S
C834        C838   1.456       .  S
C835        N842   1.158       .  T
C836        N843   1.157       .  T
C837        N841   1.157       .  T
C838        N844   1.157       .  T
C839        N848   1.157       .  T
C840        N846   1.157       .  T
C849        C850   1.404       .  A
C849        C854   1.417       .  A
C849        C867   1.453       .  S
C850        C855   1.501       .  S
C850        C851   1.402       .  A
C851        C852   1.409       .  A
C851        C856   1.453       .  S
C852        C853   1.432       .  A
C852        C868   1.445       .  S
C853        C854   1.444       .  A
C854        C857   1.450       .  S
C855        C858   1.411       .  A
C855        C862   1.406       .  A
C856        N873   1.157       .  T
C857        N875   1.156       .  T
C858        C859   1.410       .  A
C858        C863   1.451       .  S
C859        C860   1.419       .  A
C859        C865   1.452       .  S
C860        C861   1.430       .  A
C861        C862   1.415       .  A
C861        C864   1.452       .  S
C862        C866   1.452       .  S
C863        N870   1.157       .  T
C864        N871   1.158       .  T
C865        N869   1.157       .  T
C866        N872   1.157       .  T
C867        N876   1.157       .  T
C868        N874   1.158       .  T
C877        C878   1.410       .  A
C877        C882   1.410       .  A
C877        C895   1.449       .  S
C878        C883   1.488       .  S
C878        C879   1.408       .  A
C879        C880   1.403       .  A
C879        C884   1.453       .  S
C880        C881   1.412       .  A
C880        C896   1.447       .  S
C881        C882   1.411       .  A
C882        C885   1.449       .  S
C883        C886   1.400       .  A
C883        C890   1.400       .  A
C884        N901   1.157       .  T
C885        N903   1.157       .  T
C886        C887   1.410       .  A
C886        C891   1.453       .  S
C887        C888   1.439       .  A
C887        C893   1.449       .  S
C888        C889   1.438       .  A
C889        C890   1.411       .  A
C889        C892   1.443       .  S
C890        C894   1.456       .  S
C891        N898   1.157       .  T
C892        N899   1.158       .  T
C893        N897   1.157       .  T
C894        N900   1.157       .  T
C895        N904   1.157       .  T
C896        N902   1.156       .  T
C905        C906   1.405       .  A
C905        C910   1.405       .  A
C905        C923   1.455       .  S
C906        C911   1.489       .  S
C906        C907   1.407       .  A
C907        C908   1.410       .  A
C907        C912   1.451       .  S
C908        C909   1.420       .  A
C908        C924   1.451       .  S
C909        C910   1.426       .  A
C910        C913   1.452       .  S
C911        C914   1.399       .  A
C911        C918   1.402       .  A
C912        N929   1.157       .  T
C913        N931   1.157       .  T
C914        C915   1.400       .  A
C914        C919   1.452       .  S
C915        C916   1.434       .  A
C915        C921   1.449       .  S
C916        C917   1.445       .  A
C917        C918   1.416       .  A
C917        C920   1.452       .  S
C918        C922   1.454       .  S
C919        N926   1.157       .  T
C920        N927   1.158       .  T
C921        N925   1.157       .  T
C922        N928   1.157       .  T
C923        N932   1.157       .  T
C924        N930   1.157       .  T
C933        C934   1.405       .  A
C933        C938   1.409       .  A
C933        C951   1.450       .  S
C934        C939   1.498       .  S
C934        C935   1.404       .  A
C935        C936   1.412       .  A
C935        C940   1.454       .  S
C936        C937   1.442       .  A
C936        C952   1.450       .  S
C937        C938   1.426       .  A
C938        C941   1.448       .  S
C939        C942   1.410       .  A
C939        C946   1.408       .  A
C940        N957   1.157       .  T
C941        N959   1.158       .  T
C942        C943   1.409       .  A
C942        C947   1.453       .  S
C943        C944   1.420       .  A
C943        C949   1.451       .  S
C944        C945   1.422       .  A
C945        C946   1.413       .  A
C945        C948   1.450       .  S
C946        C950   1.451       .  S
C947        N954   1.157       .  T
C948        N955   1.157       .  T
C949        N953   1.157       .  T
C950        N956   1.157       .  T
C951        N960   1.157       .  T
C952        N958   1.157       .  T
C961        C962   1.394       .  A
C961        C966   1.414       .  A
C961        C979   1.454       .  S
C962        C967   1.487       .  S
C962        C963   1.394       .  A
C963        C964   1.408       .  A
C963        C968   1.460       .  S
C964        C965   1.452       .  A
C964        C980   1.449       .  S
C965        C966   1.453       .  A
C966        C969   1.451       .  S
C967        C970   1.406       .  A
C967        C974   1.405       .  A
C968        N985   1.157       .  T
C969        N987   1.158       .  T
C970        C971   1.405       .  A
C970        C975   1.454       .  S
C971        C972   1.423       .  A
C971        C977   1.453       .  S
C972        C973   1.425       .  A
C973        C974   1.409       .  A
C973        C976   1.451       .  S
C974        C978   1.452       .  S
C975        N982   1.157       .  T
C976        N983   1.157       .  T
C977        N981   1.157       .  T
C978        N984   1.157       .  T
C979        N988   1.157       .  T
C980        N986   1.158       .  T
C989        C990   1.419       .  A
C989        C994   1.412       .  A
C989       C1007   1.451       .  S
C990        C995   1.514       .  S
C990        C991   1.418       .  A
C991        C992   1.415       .  A
C991        C996   1.451       .  S
C992        C993   1.411       .  A
C992       C1008   1.451       .  S
C993        C994   1.410       .  A
C994        C997   1.451       .  S
C995        C998   1.406       .  A
C995       C1002   1.402       .  A
C996       N1013   1.157       .  T
C997       N1015   1.158       .  T
C998        C999   1.420       .  A
C998       C1003   1.455       .  S
C999       C1000   1.449       .  A
C999       C1005   1.449       .  S
C1000      C1001   1.452       .  A
C1001      C1002   1.415       .  A
C1001      C1004   1.452       .  S
C1002      C1006   1.454       .  S
C1003      N1010   1.157       .  T
C1004      N1011   1.158       .  T
C1005      N1009   1.158       .  T
C1006      N1012   1.157       .  T
C1007      N1016   1.157       .  T
C1008      N1014   1.158       .  T
C1017      C1018   1.412       .  A
C1017      C1022   1.412       .  A
C1017      C1035   1.452       .  S
C1018      C1023   1.505       .  S
C1018      C1019   1.414       .  A
C1019      C1020   1.411       .  A
C1019      C1024   1.447       .  S
C1020      C1021   1.412       .  A
C1020      C1036   1.452       .  S
C1021      C1022   1.419       .  A
C1022      C1025   1.452       .  S
C1023      C1026   1.397       .  A
C1023      C1030   1.403       .  A
C1024      N1041   1.157       .  T
C1025      N1043   1.157       .  T
C1026      C1027   1.413       .  A
C1026      C1031   1.459       .  S
C1027      C1028   1.452       .  A
C1027      C1033   1.449       .  S
C1028      C1029   1.445       .  A
C1029      C1030   1.427       .  A
C1029      C1032   1.441       .  S
C1030      C1034   1.453       .  S
C1031      N1038   1.158       .  T
C1032      N1039   1.156       .  T
C1033      N1037   1.157       .  T
C1034      N1040   1.157       .  T
C1035      N1044   1.157       .  T
C1036      N1042   1.157       .  T
C1045      C1046   1.412       .  A
C1045      C1050   1.414       .  A
C1045      C1063   1.451       .  S
C1046      C1051   1.503       .  S
C1046      C1047   1.408       .  A
C1047      C1048   1.411       .  A
C1047      C1052   1.453       .  S
C1048      C1049   1.422       .  A
C1048      C1064   1.450       .  S
C1049      C1050   1.420       .  A
C1050      C1053   1.452       .  S
C1051      C1054   1.394       .  A
C1051      C1058   1.401       .  A
C1052      N1069   1.157       .  T
C1053      N1071   1.157       .  T
C1054      C1055   1.411       .  A
C1054      C1059   1.455       .  S
C1055      C1056   1.453       .  A
C1055      C1061   1.451       .  S
C1056      C1057   1.452       .  A
C1057      C1058   1.424       .  A
C1057      C1060   1.444       .  S
C1058      C1062   1.457       .  S
C1059      N1066   1.157       .  T
C1060      N1067   1.158       .  T
C1061      N1065   1.157       .  T
C1062      N1068   1.157       .  T
C1063      N1072   1.157       .  T
C1064      N1070   1.157   1_556  T
C1073      C1074   1.407       .  A
C1073      C1078   1.416       .  A
C1073      C1091   1.452       .  S
C1074      C1079   1.512       .  S
C1074      C1075   1.410       .  A
C1075      C1076   1.418       .  A
C1075      C1080   1.453       .  S
C1076      C1077   1.430       .  A
C1076      C1092   1.452       .  S
C1077      C1078   1.430       .  A
C1078      C1081   1.452       .  S
C1079      C1082   1.402       .  A
C1079      C1086   1.399       .  A
C1080      N1097   1.157       .  T
C1081      N1099   1.158       .  T
C1082      C1083   1.423       .  A
C1082      C1087   1.456       .  S
C1083      C1084   1.451       .  A
C1083      C1089   1.446       .  S
C1084      C1085   1.452       .  A
C1085      C1086   1.418       .  A
C1085      C1088   1.451       .  S
C1086      C1090   1.455       .  S
C1087      N1094   1.157       .  T
C1088      N1095   1.157   1_655  T
C1089      N1093   1.157       .  T
C1090      N1096   1.157       .  T
C1091      N1100   1.157       .  T
C1092      N1098   1.158       .  T
C1101      C1102   1.394       .  A
C1101      C1106   1.406       .  A
C1101      C1119   1.456       .  S
C1102      C1107   1.493       .  S
C1102      C1103   1.407       .  A
C1103      C1104   1.420       .  A
C1103      C1108   1.453       .  S
C1104      C1105   1.440       .  A
C1104      C1120   1.447       .  S
C1105      C1106   1.446       .  A
C1106      C1109   1.447       .  S
C1107      C1110   1.409       .  A
C1107      C1114   1.414       .  A
C1108      N1125   1.157       .  T
C1109      N1127   1.155   1_655  T
C1110      C1111   1.408       .  A
C1110      C1115   1.450       .  S
C1111      C1112   1.411       .  A
C1111      C1117   1.447       .  S
C1112      C1113   1.407       .  A
C1113      C1114   1.405       .  A
C1113      C1116   1.449       .  S
C1114      C1118   1.450       .  S
C1115      N1122   1.157       .  T
C1116      N1123   1.156   1_554  T
C1117      N1121   1.156       .  T
C1118      N1124   1.157       .  T
C1119      N1128   1.157       .  T
C1120      N1126   1.157       .  T
C1129      C1130   1.416       .  A
C1129      C1134   1.405       .  A
C1129      C1147   1.449       .  S
C1130      C1135   1.496       .  S
C1130      C1131   1.415   1_545  A
C1131      C1132   1.403       .  A
C1131      C1136   1.452       .  S
C1132      C1133   1.410   1_565  A
C1132      C1148   1.451       .  S
C1133      C1134   1.406       .  A
C1134      C1137   1.449       .  S
C1135      C1138   1.405       .  A
C1135      C1142   1.401       .  A
C1136      N1153   1.157       .  T
C1137      N1155   1.157       .  T
C1138      C1139   1.414       .  A
C1138      C1143   1.455       .  S
C1139      C1140   1.453       .  A
C1139      C1145   1.450       .  S
C1140      C1141   1.435   1_545  A
C1141      C1142   1.401   1_565  A
C1141      C1144   1.445       .  S
C1142      C1146   1.452   1_545  S
C1143      N1150   1.157       .  T
C1144      N1151   1.156       .  T
C1145      N1149   1.157       .  T
C1146      N1152   1.157       .  T
C1147      N1156   1.157       .  T
C1148      N1154   1.157       .  T
C1157      C1158   1.414       .  A
C1157      C1162   1.417       .  A
C1157      C1175   1.449       .  S
C1158      C1163   1.501       .  S
C1158      C1159   1.406       .  A
C1159      C1160   1.403   1_545  A
C1159      C1164   1.456   1_545  S
C1160      C1161   1.430   1_565  A
C1160      C1176   1.454       .  S
C1161      C1162   1.419       .  A
C1162      C1165   1.451       .  S
C1163      C1166   1.404       .  A
C1163      C1170   1.401       .  A
C1164      N1181   1.157       .  T
C1165      N1183   1.158       .  T
C1166      C1167   1.408       .  A
C1166      C1171   1.456   1_545  S
C1167      C1168   1.444       .  A
C1167      C1173   1.451   1_545  S
C1168      C1169   1.453       .  A
C1169      C1170   1.417       .  A
C1169      C1172   1.451       .  S
C1170      C1174   1.453       .  S
C1171      N1178   1.157       .  T
C1172      N1179   1.158       .  T
C1173      N1177   1.158       .  T
C1174      N1180   1.157       .  T
C1175      N1184   1.157       .  T
C1176      N1182   1.157       .  T
C1185      C1186   1.401       .  A
C1185      C1190   1.421       .  A
C1185      C1203   1.455       .  S
C1186      C1191   1.507       .  S
C1186      C1187   1.397       .  A
C1187      C1188   1.417       .  A
C1187      C1192   1.455       .  S
C1188      C1189   1.450       .  A
C1188      C1204   1.449       .  S
C1189      C1190   1.453       .  A
C1190      C1193   1.451       .  S
C1191      C1194   1.411       .  A
C1191      C1198   1.412       .  A
C1192      N1209   1.157       .  T
C1193      N1211   1.158       .  T
C1194      C1195   1.413       .  A
C1194      C1199   1.451       .  S
C1195      C1196   1.422       .  A
C1195      C1201   1.452       .  S
C1196      C1197   1.418       .  A
C1197      C1198   1.414       .  A
C1197      C1200   1.451       .  S
C1198      C1202   1.450       .  S
C1199      N1206   1.157       .  T
C1200      N1207   1.157       .  T
C1201      N1205   1.157       .  T
C1202      N1208   1.157       .  T
C1203      N1212   1.157       .  T
C1204      N1210   1.157       .  T
C1213      C1214   1.399       .  A
C1213      C1218   1.411       .  A
C1213      C1231   1.457       .  S
C1214      C1219   1.491       .  S
C1214      C1215   1.401       .  A
C1215      C1216   1.414       .  A
C1215      C1220   1.457       .  S
C1216      C1217   1.447       .  A
C1216      C1232   1.451       .  S
C1217      C1218   1.450       .  A
C1218      C1221   1.451       .  S
C1219      C1222   1.403       .  A
C1219      C1226   1.413       .  A
C1220      N1237   1.157       .  T
C1221      N1239   1.157       .  T
C1222      C1223   1.398       .  A
C1222      C1227   1.457       .  S
C1223      C1224   1.427       .  A
C1223      C1229   1.451       .  S
C1224      C1225   1.415       .  A
C1225      C1226   1.414       .  A
C1225      C1228   1.450       .  S
C1226      C1230   1.449       .  S
C1227      N1234   1.157       .  T
C1228      N1235   1.157       .  T
C1229      N1233   1.156       .  T
C1230      N1236   1.157       .  T
C1231      N1240   1.157       .  T
C1232      N1238   1.158       .  T
C1241      C1242   1.413       .  A
C1241      C1246   1.416       .  A
C1241      C1259   1.451       .  S
C1242      C1247   1.506       .  S
C1242      C1243   1.408       .  A
C1243      C1244   1.411       .  A
C1243      C1248   1.453       .  S
C1244      C1245   1.424       .  A
C1244      C1260   1.450       .  S
C1245      C1246   1.421       .  A
C1246      C1249   1.452       .  S
C1247      C1250   1.400       .  A
C1247      C1254   1.401       .  A
C1248      N1265   1.157       .  T
C1249      N1267   1.158       .  T
C1250      C1251   1.413       .  A
C1250      C1255   1.454       .  S
C1251      C1252   1.450       .  A
C1251      C1257   1.453       .  S
C1252      C1253   1.452       .  A
C1253      C1254   1.418       .  A
C1253      C1256   1.450       .  S
C1254      C1258   1.455       .  S
C1255      N1262   1.157       .  T
C1256      N1263   1.158       .  T
C1257      N1261   1.157       .  T
C1258      N1264   1.157       .  T
C1259      N1268   1.157       .  T
C1260      N1266   1.156       .  T
C1269      C1270   1.414       .  A
C1269      C1274   1.418       .  A
C1269      C1287   1.450       .  S
C1270      C1275   1.497       .  S
C1270      C1271   1.402       .  A
C1271      C1272   1.399       .  A
C1271      C1276   1.455       .  S
C1272      C1273   1.434       .  A
C1272      C1288   1.457       .  S
C1273      C1274   1.417       .  A
C1274      C1277   1.449       .  S
C1275      C1278   1.399       .  A
C1275      C1282   1.399       .  A
C1276      N1293   1.157       .  T
C1277      N1295   1.157       .  T
C1278      C1279   1.412       .  A
C1278      C1283   1.454       .  S
C1279      C1280   1.449       .  A
C1279      C1285   1.452       .  S
C1280      C1281   1.451       .  A
C1281      C1282   1.414       .  A
C1281      C1284   1.445       .  S
C1282      C1286   1.458       .  S
C1283      N1290   1.157       .  T
C1284      N1291   1.156       .  T
C1285      N1289   1.157       .  T
C1286      N1292   1.157       .  T
C1287      N1296   1.157       .  T
C1288      N1294   1.157       .  T
C1297      C1298   1.399       .  A
C1297      C1302   1.411   1_565  A
C1297      C1315   1.452       .  S
C1298      C1303   1.507       .  S
C1298      C1299   1.405       .  A
C1299      C1300   1.422   1_565  A
C1299      C1304   1.454       .  S
C1300      C1301   1.443       .  A
C1300      C1316   1.446       .  S
C1301      C1302   1.436       .  A
C1302      C1305   1.441       .  S
C1303      C1306   1.411       .  A
C1303      C1310   1.407   1_565  A
C1304      N1321   1.157       .  T
C1305      N1323   1.156       .  T
C1306      C1307   1.420       .  A
C1306      C1311   1.449       .  S
C1307      C1308   1.418       .  A
C1307      C1313   1.443       .  S
C1308      C1309   1.434   1_565  A
C1309      C1310   1.408       .  A
C1309      C1312   1.455       .  S
C1310      C1314   1.455       .  S
C1311      N1318   1.157       .  T
C1312      N1319   1.158       .  T
C1313      N1317   1.155       .  T
C1314      N1320   1.157       .  T
C1315      N1324   1.157       .  T
C1316      N1322   1.157       .  T
C1325      C1326   1.416   1_545  A
C1325      C1330   1.409       .  A
C1325      C1343   1.450       .  S
C1326      C1331   1.505       .  S
C1326      C1327   1.419       .  A
C1327      C1328   1.409       .  A
C1327      C1332   1.451       .  S
C1328      C1329   1.409       .  A
C1328      C1344   1.452       .  S
C1329      C1330   1.408   1_565  A
C1330      C1333   1.447       .  S
C1331      C1334   1.403   1_565  A
C1331      C1338   1.405       .  A
C1332      N1349   1.157       .  T
C1333      N1351   1.156   1_655  T
C1334      C1335   1.407       .  A
C1334      C1339   1.456       .  S
C1335      C1336   1.443       .  A
C1335      C1341   1.446   1_545  S
C1336      C1337   1.451   1_545  A
C1337      C1338   1.418       .  A
C1337      C1340   1.453       .  S
C1338      C1342   1.452       .  S
C1339      N1346   1.157       .  T
C1340      N1347   1.158       .  T
C1341      N1345   1.157       .  T
C1342      N1348   1.157       .  T
C1343      N1352   1.157       .  T
C1344      N1350   1.157       .  T
C1353      C1354   1.399       .  A
C1353      C1358   1.418       .  A
C1353      C1371   1.455       .  S
C1354      C1359   1.516       .  S
C1354      C1355   1.405       .  A
C1355      C1356   1.426       .  A
C1355      C1360   1.455       .  S
C1356      C1357   1.453       .  A
C1356      C1372   1.451       .  S
C1357      C1358   1.450       .  A
C1358      C1361   1.450       .  S
C1359      C1362   1.418       .  A
C1359      C1366   1.413       .  A
C1360      N1377   1.157       .  T
C1361      N1379   1.157       .  T
C1362      C1363   1.418       .  A
C1362      C1367   1.449       .  S
C1363      C1364   1.411       .  A
C1363      C1369   1.450       .  S
C1364      C1365   1.413       .  A
C1365      C1366   1.414       .  A
C1365      C1368   1.447       .  S
C1366      C1370   1.450       .  S
C1367      N1374   1.157       .  T
C1368      N1375   1.155       .  T
C1369      N1373   1.158       .  T
C1370      N1376   1.157       .  T
C1371      N1380   1.157       .  T
C1372      N1378   1.159       .  T
C1381      C1382   1.415       .  A
C1381      C1386   1.416       .  A
C1381      C1399   1.450       .  S
C1382      C1387   1.500       .  S
C1382      C1383   1.407       .  A
C1383      C1384   1.404       .  A
C1383      C1388   1.455       .  S
C1384      C1385   1.425       .  A
C1384      C1400   1.452       .  S
C1385      C1386   1.418       .  A
C1386      C1389   1.450       .  S
C1387      C1390   1.404       .  A
C1387      C1394   1.400       .  A
C1388      N1405   1.157       .  T
C1389      N1407   1.157       .  T
C1390      C1391   1.409       .  A
C1390      C1395   1.454       .  S
C1391      C1392   1.443       .  A
C1391      C1397   1.450       .  S
C1392      C1393   1.452       .  A
C1393      C1394   1.415       .  A
C1393      C1396   1.450       .  S
C1394      C1398   1.454       .  S
C1395      N1402   1.157       .  T
C1396      N1403   1.157       .  T
C1397      N1401   1.158       .  T
C1398      N1404   1.157       .  T
C1399      N1408   1.157       .  T
C1400      N1406   1.157       .  T
C1409      C1410   1.410       .  A
C1409      C1414   1.411       .  A
C1409      C1427   1.450       .  S
C1410      C1415   1.504       .  S
C1410      C1411   1.414       .  A
C1411      C1412   1.414       .  A
C1411      C1416   1.450       .  S
C1412      C1413   1.412       .  A
C1412      C1428   1.447       .  S
C1413      C1414   1.413       .  A
C1414      C1417   1.448       .  S
C1415      C1418   1.398       .  A
C1415      C1422   1.399       .  A
C1416      N1433   1.157       .  T
C1417      N1435   1.156       .  T
C1418      C1419   1.417       .  A
C1418      C1423   1.457       .  S
C1419      C1420   1.456       .  A
C1419      C1425   1.453       .  S
C1420      C1421   1.448       .  A
C1421      C1422   1.421       .  A
C1421      C1424   1.449       .  S
C1422      C1426   1.454       .  S
C1423      N1430   1.157       .  T
C1424      N1431   1.157       .  T
C1425      N1429   1.158       .  T
C1426      N1432   1.157       .  T
C1427      N1436   1.157       .  T
C1428      N1434   1.156       .  T
C1437      C1438   1.401       .  A
C1437      C1442   1.420       .  A
C1437      C1455   1.454       .  S
C1438      C1443   1.495       .  S
C1438      C1439   1.393       .  A
C1439      C1440   1.411       .  A
C1439      C1444   1.458       .  S
C1440      C1441   1.452       .  A
C1440      C1456   1.446       .  S
C1441      C1442   1.446       .  A
C1442      C1445   1.449       .  S
C1443      C1446   1.409       .  A
C1443      C1450   1.412       .  A
C1444      N1461   1.157       .  T
C1445      N1463   1.157       .  T
C1446      C1447   1.407       .  A
C1446      C1451   1.452       .  S
C1447      C1448   1.413       .  A
C1447      C1453   1.451       .  S
C1448      C1449   1.411       .  A
C1449      C1450   1.411       .  A
C1449      C1452   1.448       .  S
C1450      C1454   1.450       .  S
C1451      N1458   1.157       .  T
C1452      N1459   1.156       .  T
C1453      N1457   1.157       .  T
C1454      N1460   1.157       .  T
C1455      N1464   1.157       .  T
C1456      N1462   1.155       .  T
C1465      C1466   1.398       .  A
C1465      C1470   1.409       .  A
C1465      C1483   1.453       .  S
C1466      C1471   1.515       .  S
C1466      C1467   1.407   1_655  A
C1467      C1468   1.430       .  A
C1467      C1472   1.452       .  S
C1468      C1469   1.447   1_455  A
C1468      C1484   1.446       .  S
C1469      C1470   1.450       .  A
C1470      C1473   1.450   1_655  S
C1471      C1474   1.416   1_655  A
C1471      C1478   1.409       .  A
C1472      N1489   1.157       .  T
C1473      N1491   1.157       .  T
C1474      C1475   1.419       .  A
C1474      C1479   1.451       .  S
C1475      C1476   1.421   1_455  A
C1475      C1481   1.452       .  S
C1476      C1477   1.424       .  A
C1477      C1478   1.416       .  A
C1477      C1480   1.450       .  S
C1478      C1482   1.450       .  S
C1479      N1486   1.157       .  T
C1480      N1487   1.157       .  T
C1481      N1485   1.158       .  T
C1482      N1488   1.156       .  T
C1483      N1492   1.157       .  T
C1484      N1490   1.157       .  T
C1493      C1494   1.409   1_455  A
C1493      C1498   1.410       .  A
C1493      C1511   1.450       .  S
C1494      C1499   1.508       .  S
C1494      C1495   1.416       .  A
C1495      C1496   1.418       .  A
C1495      C1500   1.449       .  S
C1496      C1497   1.413       .  A
C1496      C1512   1.451       .  S
C1497      C1498   1.413   1_655  A
C1498      C1501   1.446       .  S
C1499      C1502   1.398       .  A
C1499      C1506   1.399   1_655  A
C1500      N1517   1.157       .  T
C1501      N1519   1.155       .  T
C1502      C1503   1.418       .  A
C1502      C1507   1.454       .  S
C1503      C1504   1.455       .  A
C1503      C1509   1.452       .  S
C1504      C1505   1.450   1_655  A
C1505      C1506   1.422       .  A
C1505      C1508   1.446       .  S
C1506      C1510   1.456       .  S
C1507      N1514   1.157       .  T
C1508      N1515   1.157       .  T
C1509      N1513   1.158       .  T
C1510      N1516   1.157       .  T
C1511      N1520   1.157       .  T
C1512      N1518   1.157       .  T
C1521      C1522   1.409       .  A
C1521      C1526   1.407       .  A
C1521      C1539   1.449       .  S
C1522      C1527   1.494       .  S
C1522      C1523   1.409       .  A
C1523      C1524   1.411       .  A
C1523      C1528   1.451       .  S
C1524      C1525   1.416       .  A
C1524      C1540   1.448       .  S
C1525      C1526   1.415       .  A
C1526      C1529   1.452       .  S
C1527      C1530   1.396       .  A
C1527      C1534   1.397       .  A
C1528      N1545   1.157       .  T
C1529      N1547   1.157       .  T
C1530      C1531   1.411       .  A
C1530      C1535   1.457       .  S
C1531      C1532   1.452       .  A
C1531      C1537   1.452       .  S
C1532      C1533   1.451       .  A
C1533      C1534   1.418       .  A
C1533      C1536   1.450       .  S
C1534      C1538   1.454       .  S
C1535      N1542   1.157       .  T
C1536      N1543   1.158       .  T
C1537      N1541   1.157       .  T
C1538      N1544   1.157       .  T
C1539      N1548   1.157       .  T
C1540      N1546   1.156       .  T
C1549      C1550   1.410       .  A
C1549      C1554   1.411       .  A
C1549      C1567   1.451       .  S
C1550      C1555   1.496       .  S
C1550      C1551   1.409       .  A
C1551      C1552   1.406       .  A
C1551      C1556   1.452       .  S
C1552      C1553   1.417       .  A
C1552      C1568   1.451       .  S
C1553      C1554   1.420       .  A
C1554      C1557   1.453       .  S
C1555      C1558   1.396       .  A
C1555      C1562   1.399       .  A
C1556      N1573   1.157       .  T
C1557      N1575   1.158       .  T
C1558      C1559   1.411       .  A
C1558      C1563   1.455       .  S
C1559      C1560   1.451       .  A
C1559      C1565   1.452       .  S
C1560      C1561   1.452       .  A
C1561      C1562   1.418       .  A
C1561      C1564   1.445       .  S
C1562      C1566   1.459       .  S
C1563      N1570   1.157       .  T
C1564      N1571   1.158       .  T
C1565      N1569   1.157       .  T
C1566      N1572   1.157       .  T
C1567      N1576   1.157       .  T
C1568      N1574   1.157       .  T
C1577      C1578   1.410       .  A
C1577      C1582   1.416       .  A
C1577      C1595   1.451       .  S
C1578      C1583   1.510       .  S
C1578      C1579   1.409       .  A
C1579      C1580   1.416       .  A
C1579      C1584   1.451       .  S
C1580      C1581   1.423       .  A
C1580      C1596   1.449       .  S
C1581      C1582   1.423       .  A
C1582      C1585   1.451       .  S
C1583      C1586   1.401       .  A
C1583      C1590   1.398       .  A
C1584      N1601   1.157       .  T
C1585      N1603   1.157       .  T
C1586      C1587   1.423       .  A
C1586      C1591   1.456       .  S
C1587      C1588   1.453       .  A
C1587      C1593   1.450       .  S
C1588      C1589   1.455       .  A
C1589      C1590   1.418       .  A
C1589      C1592   1.452       .  S
C1590      C1594   1.456       .  S
C1591      N1598   1.157       .  T
C1592      N1599   1.158       .  T
C1593      N1597   1.158       .  T
C1594      N1600   1.157       .  T
C1595      N1604   1.157       .  T
C1596      N1602   1.157       .  T
C1605      C1606   1.403       .  A
C1605      C1610   1.405       .  A
C1605      C1623   1.452       .  S
C1606      C1611   1.480       .  S
C1606      C1607   1.408       .  A
C1607      C1608   1.402       .  A
C1607      C1612   1.453       .  S
C1608      C1609   1.416       .  A
C1608      C1624   1.450       .  S
C1609      C1610   1.415       .  A
C1610      C1613   1.442       .  S
C1611      C1614   1.394       .  A
C1611      C1618   1.393       .  A
C1612      N1629   1.157       .  T
C1613      N1631   1.154       .  T
C1614      C1615   1.412       .  A
C1614      C1619   1.453       .  S
C1615      C1616   1.450       .  A
C1615      C1621   1.451       .  S
C1616      C1617   1.454       .  A
C1617      C1618   1.402       .  A
C1617      C1620   1.449       .  S
C1618      C1622   1.462       .  S
C1619      N1626   1.157       .  T
C1620      N1627   1.157       .  T
C1621      N1625   1.157       .  T
C1622      N1628   1.157       .  T
C1623      N1632   1.157       .  T
C1624      N1630   1.156       .  T
C1633      C1634   1.409       .  A
C1633      C1638   1.405       .  A
C1633      C1651   1.453       .  S
C1634      C1639   1.500       .  S
C1634      C1635   1.411       .  A
C1635      C1636   1.412       .  A
C1635      C1640   1.453       .  S
C1636      C1637   1.425       .  A
C1636      C1652   1.452       .  S
C1637      C1638   1.424       .  A
C1638      C1641   1.453       .  S
C1639      C1642   1.402       .  A
C1639      C1646   1.401       .  A
C1640      N1657   1.158       .  T
C1641      N1659   1.158       .  T
C1642      C1643   1.410       .  A
C1642      C1647   1.458       .  S
C1643      C1644   1.441       .  A
C1643      C1649   1.442       .  S
C1644      C1645   1.446       .  A
C1645      C1646   1.414       .  A
C1645      C1648   1.450       .  S
C1646      C1650   1.454       .  S
C1647      N1654   1.157       .  T
C1648      N1655   1.157       .  T
C1649      N1653   1.156       .  T
C1650      N1656   1.157       .  T
C1651      N1660   1.157       .  T
C1652      N1658   1.158       .  T
C1661      C1662   1.411       .  A
C1661      C1666   1.414       .  A
C1661      C1679   1.453       .  S
C1662      C1667   1.511       .  S
C1662      C1663   1.406       .  A
C1663      C1664   1.420       .  A
C1663      C1668   1.454       .  S
C1664      C1665   1.439       .  A
C1664      C1680   1.446       .  S
C1665      C1666   1.442       .  A
C1666      C1669   1.454       .  S
C1667      C1670   1.412       .  A
C1667      C1674   1.420       .  A
C1668      N1685   1.157       .  T
C1669      N1687   1.157       .  T
C1670      C1671   1.408       .  A
C1670      C1675   1.451       .  S
C1671      C1672   1.411       .  A
C1671      C1677   1.447       .  S
C1672      C1673   1.411       .  A
C1673      C1674   1.416       .  A
C1673      C1676   1.450       .  S
C1674      C1678   1.450       .  S
C1675      N1682   1.157       .  T
C1676      N1683   1.157   1_655  T
C1677      N1681   1.156       .  T
C1678      N1684   1.158       .  T
C1679      N1688   1.157       .  T
C1680      N1686   1.157       .  T
C1689      C1690   1.410       .  A
C1689      C1694   1.408       .  A
C1689      C1707   1.453       .  S
C1690      C1695   1.494       .  S
C1690      C1691   1.409       .  A
C1691      C1692   1.409       .  A
C1691      C1696   1.449       .  S
C1692      C1693   1.415       .  A
C1692      C1708   1.452       .  S
C1693      C1694   1.421       .  A
C1694      C1697   1.452       .  S
C1695      C1698   1.398       .  A
C1695      C1702   1.403       .  A
C1696      N1713   1.157       .  T
C1697      N1715   1.157       .  T
C1698      C1699   1.403       .  A
C1698      C1703   1.451       .  S
C1699      C1700   1.434       .  A
C1699      C1705   1.449       .  S
C1700      C1701   1.451       .  A
C1701      C1702   1.420       .  A
C1701      C1704   1.452       .  S
C1702      C1706   1.454       .  S
C1703      N1710   1.157       .  T
C1704      N1711   1.158       .  T
C1705      N1709   1.158       .  T
C1706      N1712   1.157       .  T
C1707      N1716   1.157       .  T
C1708      N1714   1.157       .  T
C1717      C1718   1.412       .  A
C1717      C1722   1.409       .  A
C1717      C1735   1.451       .  S
C1718      C1723   1.499       .  S
C1718      C1719   1.409       .  A
C1719      C1720   1.411       .  A
C1719      C1724   1.452       .  S
C1720      C1721   1.414       .  A
C1720      C1736   1.443       .  S
C1721      C1722   1.413       .  A
C1722      C1725   1.448       .  S
C1723      C1726   1.397       .  A
C1723      C1730   1.397       .  A
C1724      N1741   1.157       .  T
C1725      N1743   1.156   1_455  T
C1726      C1727   1.416       .  A
C1726      C1731   1.459       .  S
C1727      C1728   1.456       .  A
C1727      C1733   1.446       .  S
C1728      C1729   1.451       .  A
C1729      C1730   1.415       .  A
C1729      C1732   1.451       .  S
C1730      C1734   1.454       .  S
C1731      N1738   1.157       .  T
C1732      N1739   1.157       .  T
C1733      N1737   1.158       .  T
C1734      N1740   1.157       .  T
C1735      N1744   1.157       .  T
C1736      N1742   1.154       .  T
C1745      C1746   1.410   1_455  A
C1745      C1750   1.413       .  A
C1745      C1763   1.451       .  S
C1746      C1751   1.510       .  S
C1746      C1747   1.415       .  A
C1747      C1748   1.416       .  A
C1747      C1752   1.452       .  S
C1748      C1749   1.420       .  A
C1748      C1764   1.451       .  S
C1749      C1750   1.424   1_655  A
C1750      C1753   1.450       .  S
C1751      C1754   1.408       .  A
C1751      C1758   1.401       .  A
C1752      N1769   1.157       .  T
C1753      N1771   1.157       .  T
C1754      C1755   1.424       .  A
C1754      C1759   1.453       .  S
C1755      C1756   1.444       .  A
C1755      C1761   1.446       .  S
C1756      C1757   1.442       .  A
C1757      C1758   1.407       .  A
C1757      C1760   1.449       .  S
C1758      C1762   1.452       .  S
C1759      N1766   1.157       .  T
C1760      N1767   1.157       .  T
C1761      N1765   1.157       .  T
C1762      N1768   1.157   1_655  T
C1763      N1772   1.157       .  T
C1764      N1770   1.158       .  T
C1773      C1774   1.410   1_455  A
C1773      C1778   1.411       .  A
C1773      C1791   1.451       .  S
C1774      C1779   1.508       .  S
C1774      C1775   1.415       .  A
C1775      C1776   1.417       .  A
C1775      C1780   1.450       .  S
C1776      C1777   1.413       .  A
C1776      C1792   1.448       .  S
C1777      C1778   1.414   1_655  A
C1778      C1781   1.448       .  S
C1779      C1782   1.398   1_655  A
C1779      C1786   1.401       .  A
C1780      N1797   1.157       .  T
C1781      N1799   1.156       .  T
C1782      C1783   1.417       .  A
C1782      C1787   1.454       .  S
C1783      C1784   1.452   1_455  A
C1783      C1789   1.453       .  S
C1784      C1785   1.453       .  A
C1785      C1786   1.422       .  A
C1785      C1788   1.450       .  S
C1786      C1790   1.456       .  S
C1787      N1794   1.157       .  T
C1788      N1795   1.158       .  T
C1789      N1793   1.157       .  T
C1790      N1796   1.157       .  T
C1791      N1800   1.157       .  T
C1792      N1798   1.157       .  T
C1801      C1802   1.398       .  A
C1801      C1806   1.421       .  A
C1801      C1819   1.455       .  S
C1802      C1807   1.502       .  S
C1802      C1803   1.396       .  A
C1803      C1804   1.415       .  A
C1803      C1808   1.457       .  S
C1804      C1805   1.452       .  A
C1804      C1820   1.449       .  S
C1805      C1806   1.451       .  A
C1806      C1809   1.445       .  S
C1807      C1810   1.413       .  A
C1807      C1814   1.409       .  A
C1808      N1825   1.157       .  T
C1809      N1827   1.157       .  T
C1810      C1811   1.415       .  A
C1810      C1815   1.451       .  S
C1811      C1812   1.416       .  A
C1811      C1817   1.451       .  S
C1812      C1813   1.414       .  A
C1813      C1814   1.409       .  A
C1813      C1816   1.449       .  S
C1814      C1818   1.450       .  S
C1815      N1822   1.157       .  T
C1816      N1823   1.156       .  T
C1817      N1821   1.158   1_455  T
C1818      N1824   1.157       .  T
C1819      N1828   1.157       .  T
C1820      N1826   1.157       .  T
C1829      C1830   1.405       .  A
C1829      C1834   1.409       .  A
C1829      C1847   1.452       .  S
C1830      C1835   1.497       .  S
C1830      C1831   1.410       .  A
C1831      C1832   1.412       .  A
C1831      C1836   1.451       .  S
C1832      C1833   1.420       .  A
C1832      C1848   1.452       .  S
C1833      C1834   1.426       .  A
C1834      C1837   1.452       .  S
C1835      C1838   1.396       .  A
C1835      C1842   1.396       .  A
C1836      N1853   1.157       .  T
C1837      N1855   1.158       .  T
C1838      C1839   1.416       .  A
C1838      C1843   1.453       .  S
C1839      C1840   1.449       .  A
C1839      C1845   1.451       .  S
C1840      C1841   1.457       .  A
C1841      C1842   1.415       .  A
C1841      C1844   1.448       .  S
C1842      C1846   1.459       .  S
C1843      N1850   1.157       .  T
C1844      N1851   1.158       .  T
C1845      N1849   1.157       .  T
C1846      N1852   1.158       .  T
C1847      N1856   1.157       .  T
C1848      N1854   1.158       .  T
C1857      C1858   1.410       .  A
C1857      C1862   1.414       .  A
C1857      C1875   1.451       .  S
C1858      C1863   1.503       .  S
C1858      C1859   1.409       .  A
C1859      C1860   1.407       .  A
C1859      C1864   1.450       .  S
C1860      C1861   1.419       .  A
C1860      C1876   1.450       .  S
C1861      C1862   1.425       .  A
C1862      C1865   1.451       .  S
C1863      C1866   1.400       .  A
C1863      C1870   1.399       .  A
C1864      N1881   1.157       .  T
C1865      N1883   1.157       .  T
C1866      C1867   1.422       .  A
C1866      C1871   1.455       .  S
C1867      C1868   1.450       .  A
C1867      C1873   1.447       .  S
C1868      C1869   1.454       .  A
C1869      C1870   1.413       .  A
C1869      C1872   1.453       .  S
C1870      C1874   1.458       .  S
C1871      N1878   1.157       .  T
C1872      N1879   1.158       .  T
C1873      N1877   1.158       .  T
C1874      N1880   1.157       .  T
C1875      N1884   1.157       .  T
C1876      N1882   1.157       .  T
C1885      C1886   1.397       .  A
C1885      C1890   1.414       .  A
C1885      C1903   1.454       .  S
C1886      C1891   1.499       .  S
C1886      C1887   1.398       .  A
C1887      C1888   1.415       .  A
C1887      C1892   1.456       .  S
C1888      C1889   1.450       .  A
C1888      C1904   1.447       .  S
C1889      C1890   1.450       .  A
C1890      C1893   1.452       .  S
C1891      C1894   1.405       .  A
C1891      C1898   1.409       .  A
C1892      N1909   1.157       .  T
C1893      N1911   1.157       .  T
C1894      C1895   1.412       .  A
C1894      C1899   1.452       .  S
C1895      C1896   1.425       .  A
C1895      C1901   1.449       .  S
C1896      C1897   1.423       .  A
C1897      C1898   1.414       .  A
C1897      C1900   1.451       .  S
C1898      C1902   1.452       .  S
C1899      N1906   1.157       .  T
C1900      N1907   1.157       .  T
C1901      N1905   1.156       .  T
C1902      N1908   1.157       .  T
C1903      N1912   1.157       .  T
C1904      N1910   1.157       .  T
C1913      C1914   1.410       .  A
C1913      C1918   1.414       .  A
C1913      C1931   1.453       .  S
C1914      C1919   1.510       .  S
C1914      C1915   1.409       .  A
C1915      C1916   1.415       .  A
C1915      C1920   1.453       .  S
C1916      C1917   1.429       .  A
C1916      C1932   1.452       .  S
C1917      C1918   1.428       .  A
C1918      C1921   1.452       .  S
C1919      C1922   1.403       .  A
C1919      C1926   1.400       .  A
C1920      N1937   1.157       .  T
C1921      N1939   1.158       .  T
C1922      C1923   1.422       .  A
C1922      C1927   1.457       .  S
C1923      C1924   1.453       .  A
C1923      C1929   1.451       .  S
C1924      C1925   1.450       .  A
C1925      C1926   1.415       .  A
C1925      C1928   1.453   1_565  S
C1926      C1930   1.455       .  S
C1927      N1934   1.157       .  T
C1928      N1935   1.157       .  T
C1929      N1933   1.159       .  T
C1930      N1936   1.157       .  T
C1931      N1940   1.157       .  T
C1932      N1938   1.158       .  T
C1941      C1942   1.401       .  A
C1941      C1946   1.414       .  A
C1941      C1959   1.452       .  S
C1942      C1947   1.496       .  S
C1942      C1943   1.400       .  A
C1943      C1944   1.413       .  A
C1943      C1948   1.456       .  S
C1944      C1945   1.438       .  A
C1944      C1960   1.442   1_565  S
C1945      C1946   1.441       .  A
C1946      C1949   1.450       .  S
C1947      C1950   1.410       .  A
C1947      C1954   1.411       .  A
C1948      N1965   1.157       .  T
C1949      N1967   1.157       .  T
C1950      C1951   1.412       .  A
C1950      C1955   1.450       .  S
C1951      C1952   1.412       .  A
C1951      C1957   1.449       .  S
C1952      C1953   1.412       .  A
C1953      C1954   1.409       .  A
C1953      C1956   1.447       .  S
C1954      C1958   1.452       .  S
C1955      N1962   1.157       .  T
C1956      N1963   1.156       .  T
C1957      N1961   1.157       .  T
C1958      N1964   1.157       .  T
C1959      N1968   1.157       .  T
C1960      N1966   1.158       .  T
C1969      C1970   1.412       .  A
C1969      C1974   1.419       .  A
C1969      C1987   1.449       .  S
C1970      C1975   1.512       .  S
C1970      C1971   1.415       .  A
C1971      C1972   1.416       .  A
C1971      C1976   1.452       .  S
C1972      C1973   1.414       .  A
C1972      C1988   1.446       .  S
C1973      C1974   1.414       .  A
C1974      C1977   1.446       .  S
C1975      C1978   1.406       .  A
C1975      C1982   1.395       .  A
C1976      N1993   1.157       .  T
C1977      N1995   1.156       .  T
C1978      C1979   1.429       .  A
C1978      C1983   1.450       .  S
C1979      C1980   1.449       .  A
C1979      C1985   1.453       .  S
C1980      C1981   1.451       .  A
C1981      C1982   1.409       .  A
C1981      C1984   1.448   1_565  S
C1982      C1986   1.457       .  S
C1983      N1990   1.157       .  T
C1984      N1991   1.156       .  T
C1985      N1989   1.158       .  T
C1986      N1992   1.157       .  T
C1987      N1996   1.157       .  T
C1988      N1994   1.156       .  T
C1997      C1998   1.399       .  A
C1997      C2002   1.419       .  A
C1997      C2015   1.456       .  S
C1998      C2003   1.501       .  S
C1998      C1999   1.399       .  A
C1999      C2000   1.415       .  A
C1999      C2004   1.455       .  S
C2000      C2001   1.452       .  A
C2000      C2016   1.453   1_565  S
C2001      C2002   1.449       .  A
C2002      C2005   1.446       .  S
C2003      C2006   1.411       .  A
C2003      C2010   1.410       .  A
C2004      N2021   1.157       .  T
C2005      N2023   1.157       .  T
C2006      C2007   1.413       .  A
C2006      C2011   1.451       .  S
C2007      C2008   1.421       .  A
C2007      C2013   1.452       .  S
C2008      C2009   1.412       .  A
C2009      C2010   1.410       .  A
C2009      C2012   1.446       .  S
C2010      C2014   1.450       .  S
C2011      N2018   1.157       .  T
C2012      N2019   1.156       .  T
C2013      N2017   1.157       .  T
C2014      N2020   1.157       .  T
C2015      N2024   1.157       .  T
C2016      N2022   1.158       .  T
C2025      C2026   1.407       .  A
C2025      C2030   1.430       .  A
C2025      C2043   1.454       .  S
C2026      C2031   1.516       .  S
C2026      C2027   1.403       .  A
C2027      C2028   1.412       .  A
C2027      C2032   1.453       .  S
C2028      C2029   1.437       .  A
C2028      C2044   1.452       .  S
C2029      C2030   1.448       .  A
C2030      C2033   1.448       .  S
C2031      C2034   1.414       .  A
C2031      C2038   1.415       .  A
C2032      N2049   1.157       .  T
C2033      N2051   1.158       .  T
C2034      C2035   1.412       .  A
C2034      C2039   1.452       .  S
C2035      C2036   1.415       .  A
C2035      C2041   1.448       .  S
C2036      C2037   1.419       .  A
C2037      C2038   1.421       .  A
C2037      C2040   1.451       .  S
C2038      C2042   1.449       .  S
C2039      N2046   1.157       .  T
C2040      N2047   1.158       .  T
C2041      N2045   1.155       .  T
C2042      N2048   1.157       .  T
C2043      N2052   1.157       .  T
C2044      N2050   1.158       .  T
C2053      C2054   1.399       .  A
C2053      C2058   1.428       .  A
C2053      C2071   1.458       .  S
C2054      C2059   1.512       .  S
C2054      C2055   1.397       .  A
C2055      C2056   1.415       .  A
C2055      C2060   1.455       .  S
C2056      C2057   1.454       .  A
C2056      C2072   1.451       .  S
C2057      C2058   1.455       .  A
C2058      C2061   1.443       .  S
C2059      C2062   1.419       .  A
C2059      C2066   1.417       .  A
C2060      N2077   1.157       .  T
C2061      N2079   1.158       .  T
C2062      C2063   1.409       .  A
C2062      C2067   1.450       .  S
C2063      C2064   1.408       .  A
C2063      C2069   1.454       .  S
C2064      C2065   1.410       .  A
C2065      C2066   1.417       .  A
C2065      C2068   1.451       .  S
C2066      C2070   1.449       .  S
C2067      N2074   1.157       .  T
C2068      N2075   1.158       .  T
C2069      N2073   1.158       .  T
C2070      N2076   1.157       .  T
C2071      N2080   1.157       .  T
C2072      N2078   1.158       .  T
C2081      C2082   1.404       .  A
C2081      C2086   1.425       .  A
C2081      C2099   1.455       .  S
C2082      C2087   1.514       .  S
C2082      C2083   1.399       .  A
C2083      C2084   1.418       .  A
C2083      C2088   1.456       .  S
C2084      C2085   1.454       .  A
C2084      C2100   1.449       .  S
C2085      C2086   1.446       .  A
C2086      C2089   1.445       .  S
C2087      C2090   1.409       .  A
C2087      C2094   1.411       .  A
C2088      N2105   1.157       .  T
C2089      N2107   1.157       .  T
C2090      C2091   1.415       .  A
C2090      C2095   1.454       .  S
C2091      C2092   1.431       .  A
C2091      C2097   1.450       .  S
C2092      C2093   1.426       .  A
C2093      C2094   1.419       .  A
C2093      C2096   1.451       .  S
C2094      C2098   1.450       .  S
C2095      N2102   1.157       .  T
C2096      N2103   1.158       .  T
C2097      N2101   1.157       .  T
C2098      N2104   1.157       .  T
C2099      N2108   1.157       .  T
C2100      N2106   1.156       .  T
C2109      C2110   1.409       .  A
C2109      C2114   1.403       .  A
C2109      C2127   1.455       .  S
C2110      C2115   1.508       .  S
C2110      C2111   1.416       .  A
C2111      C2112   1.421       .  A
C2111      C2116   1.450       .  S
C2112      C2113   1.420       .  A
C2112      C2128   1.450       .  S
C2113      C2114   1.431       .  A
C2114      C2117   1.456       .  S
C2115      C2118   1.400       .  A
C2115      C2122   1.401       .  A
C2116      N2133   1.157       .  T
C2117      N2135   1.157       .  T
C2118      C2119   1.418       .  A
C2118      C2123   1.455       .  S
C2119      C2120   1.453       .  A
C2119      C2125   1.452       .  S
C2120      C2121   1.448       .  A
C2121      C2122   1.419       .  A
C2121      C2124   1.445       .  S
C2122      C2126   1.456       .  S
C2123      N2130   1.157       .  T
C2124      N2131   1.157       .  T
C2125      N2129   1.157       .  T
C2126      N2132   1.156       .  T
C2127      N2136   1.157       .  T
C2128      N2134   1.158       .  T
C2137      C2138   1.409   1_554  A
C2137      C2142   1.422       .  A
C2137      C2155   1.451       .  S
C2138      C2143   1.501       .  S
C2138      C2139   1.400       .  A
C2139      C2140   1.405   1_556  A
C2139      C2144   1.457   1_556  S
C2140      C2141   1.444   1_554  A
C2140      C2156   1.451       .  S
C2141      C2142   1.440   1_556  A
C2142      C2145   1.453       .  S
C2143      C2146   1.406   1_556  A
C2143      C2150   1.410       .  A
C2144      N2161   1.157       .  T
C2145      N2163   1.158       .  T
C2146      C2147   1.412       .  A
C2146      C2151   1.454       .  S
C2147      C2148   1.431   1_554  A
C2147      C2153   1.451       .  S
C2148      C2149   1.423       .  A
C2149      C2150   1.413       .  A
C2149      C2152   1.452       .  S
C2150      C2154   1.451       .  S
C2151      N2158   1.157       .  T
C2152      N2159   1.158       .  T
C2153      N2157   1.157       .  T
C2154      N2160   1.157       .  T
C2155      N2164   1.157       .  T
C2156      N2162   1.156       .  T
C2165      C2166   1.411       .  A
C2165      C2170   1.413       .  A
C2165      C2183   1.450       .  S
C2166      C2171   1.495       .  S
C2166      C2167   1.405       .  A
C2167      C2168   1.403       .  A
C2167      C2172   1.450   1_556  S
C2168      C2169   1.414       .  A
C2168      C2184   1.447   1_556  S
C2169      C2170   1.415       .  A
C2170      C2173   1.449       .  S
C2171      C2174   1.406       .  A
C2171      C2178   1.396       .  A
C2172      N2189   1.157       .  T
C2173      N2191   1.157       .  T
C2174      C2175   1.417   1_556  A
C2174      C2179   1.456   1_556  S
C2175      C2176   1.442   1_554  A
C2175      C2181   1.447       .  S
C2176      C2177   1.451       .  A
C2177      C2178   1.411       .  A
C2177      C2180   1.453       .  S
C2178      C2182   1.453       .  S
C2179      N2186   1.157       .  T
C2180      N2187   1.157       .  T
C2181      N2185   1.158       .  T
C2182      N2188   1.157       .  T
C2183      N2192   1.157       .  T
C2184      N2190   1.155       .  T
C2193      C2194   1.399       .  A
C2193      C2198   1.420       .  A
C2193      C2211   1.453       .  S
C2194      C2199   1.502       .  S
C2194      C2195   1.398   1_556  A
C2195      C2196   1.418       .  A
C2195      C2200   1.458       .  S
C2196      C2197   1.458   1_554  A
C2196      C2212   1.452       .  S
C2197      C2198   1.445       .  A
C2198      C2201   1.448       .  S
C2199      C2202   1.414   1_556  A
C2199      C2206   1.411       .  A
C2200      N2217   1.157       .  T
C2201      N2219   1.157       .  T
C2202      C2203   1.413       .  A
C2202      C2207   1.449       .  S
C2203      C2204   1.408       .  A
C2203      C2209   1.447       .  S
C2204      C2205   1.414   1_554  A
C2205      C2206   1.409       .  A
C2205      C2208   1.451       .  S
C2206      C2210   1.451       .  S
C2207      N2214   1.157       .  T
C2208      N2215   1.157       .  T
C2209      N2213   1.156       .  T
C2210      N2216   1.157       .  T
C2211      N2220   1.157       .  T
C2212      N2218   1.158       .  T
C2221      C2222   1.399       .  A
C2221      C2226   1.404       .  A
C2221      C2239   1.451       .  S
C2222      C2227   1.511       .  S
C2222      C2223   1.414   1_556  A
C2223      C2224   1.425       .  A
C2223      C2228   1.454       .  S
C2224      C2225   1.443   1_554  A
C2224      C2240   1.452       .  S
C2225      C2226   1.442       .  A
C2226      C2229   1.451       .  S
C2227      C2230   1.407   1_556  A
C2227      C2234   1.420       .  A
C2228      N2245   1.157       .  T
C2229      N2247   1.158       .  T
C2230      C2231   1.407       .  A
C2230      C2235   1.452       .  S
C2231      C2232   1.421   1_554  A
C2231      C2237   1.447       .  S
C2232      C2233   1.412       .  A
C2233      C2234   1.418       .  A
C2233      C2236   1.449       .  S
C2234      C2238   1.450       .  S
C2235      N2242   1.157       .  T
C2236      N2243   1.157       .  T
C2237      N2241   1.156       .  T
C2238      N2244   1.157       .  T
C2239      N2248   1.157       .  T
C2240      N2246   1.158       .  T
C2249      C2250   1.404       .  A
C2249      C2254   1.425       .  A
C2249      C2267   1.454       .  S
C2250      C2255   1.509       .  S
C2250      C2251   1.398       .  A
C2251      C2252   1.413       .  A
C2251      C2256   1.454       .  S
C2252      C2253   1.449       .  A
C2252      C2268   1.450       .  S
C2253      C2254   1.444       .  A
C2254      C2257   1.446       .  S
C2255      C2258   1.409       .  A
C2255      C2262   1.407       .  A
C2256      N2273   1.157       .  T
C2257      N2275   1.157       .  T
C2258      C2259   1.415       .  A
C2258      C2263   1.452       .  S
C2259      C2260   1.430       .  A
C2259      C2265   1.453       .  S
C2260      C2261   1.430       .  A
C2261      C2262   1.417       .  A
C2261      C2264   1.452       .  S
C2262      C2266   1.451       .  S
C2263      N2270   1.157       .  T
C2264      N2271   1.158       .  T
C2265      N2269   1.158       .  T
C2266      N2272   1.157       .  T
C2267      N2276   1.157       .  T
C2268      N2274   1.158       .  T
C2277      C2278   1.398       .  A
C2277      C2282   1.423       .  A
C2277      C2295   1.458       .  S
C2278      C2283   1.504       .  S
C2278      C2279   1.396       .  A
C2279      C2280   1.412       .  A
C2279      C2284   1.454       .  S
C2280      C2281   1.448       .  A
C2280      C2296   1.450       .  S
C2281      C2282   1.451       .  A
C2282      C2285   1.439       .  S
C2283      C2286   1.413       .  A
C2283      C2290   1.411       .  A
C2284      N2301   1.157       .  T
C2285      N2303   1.158       .  T
C2286      C2287   1.416       .  A
C2286      C2291   1.449       .  S
C2287      C2288   1.416       .  A
C2287      C2293   1.448       .  S
C2288      C2289   1.420       .  A
C2289      C2290   1.406       .  A
C2289      C2292   1.453       .  S
C2290      C2294   1.453       .  S
C2291      N2298   1.157       .  T
C2292      N2299   1.157       .  T
C2293      N2297   1.157       .  T
C2294      N2300   1.157       .  T
C2295      N2304   1.157       .  T
C2296      N2302   1.157       .  T
C2305      C2306   1.405       .  A
C2305      C2310   1.422       .  A
C2305      C2323   1.454       .  S
C2306      C2311   1.514       .  S
C2306      C2307   1.405   1_556  A
C2307      C2308   1.419       .  A
C2307      C2312   1.454       .  S
C2308      C2309   1.446   1_554  A
C2308      C2324   1.451       .  S
C2309      C2310   1.445       .  A
C2310      C2313   1.448       .  S
C2311      C2314   1.416   1_556  A
C2311      C2318   1.417       .  A
C2312      N2329   1.157       .  T
C2313      N2331   1.157       .  T
C2314      C2315   1.415       .  A
C2314      C2319   1.449       .  S
C2315      C2316   1.409   1_554  A
C2315      C2321   1.446       .  S
C2316      C2317   1.413       .  A
C2317      C2318   1.414       .  A
C2317      C2320   1.451       .  S
C2318      C2322   1.451       .  S
C2319      N2326   1.157       .  T
C2320      N2327   1.157       .  T
C2321      N2325   1.156       .  T
C2322      N2328   1.157       .  T
C2323      N2332   1.157       .  T
C2324      N2330   1.158       .  T
C2333      C2334   1.401       .  A
C2333      C2338   1.420       .  A
C2333      C2351   1.454       .  S
C2334      C2339   1.508       .  S
C2334      C2335   1.403       .  A
C2335      C2336   1.417       .  A
C2335      C2340   1.458       .  S
C2336      C2337   1.446   1_554  A
C2336      C2352   1.445       .  S
C2337      C2338   1.455   1_556  A
C2338      C2341   1.455   1_554  S
C2339      C2342   1.416       .  A
C2339      C2346   1.407   1_554  A
C2340      N2357   1.157       .  T
C2341      N2359   1.158       .  T
C2342      C2343   1.423       .  A
C2342      C2347   1.450       .  S
C2343      C2344   1.420       .  A
C2343      C2349   1.449       .  S
C2344      C2345   1.425   1_554  A
C2345      C2346   1.405       .  A
C2345      C2348   1.451       .  S
C2346      C2350   1.454       .  S
C2347      N2354   1.157       .  T
C2348      N2355   1.156       .  T
C2349      N2353   1.158   1_565  T
C2350      N2356   1.157       .  T
C2351      N2360   1.157   1_554  T
C2352      N2358   1.157       .  T
C2361      C2362   1.405       .  A
C2361      C2366   1.406       .  A
C2361      C2379   1.453       .  S
C2362      C2367   1.491       .  S
C2362      C2363   1.408   1_556  A
C2363      C2364   1.408       .  A
C2363      C2368   1.452       .  S
C2364      C2365   1.421   1_554  A
C2364      C2380   1.452       .  S
C2365      C2366   1.422       .  A
C2366      C2369   1.449       .  S
C2367      C2370   1.396       .  A
C2367      C2374   1.398   1_556  A
C2368      N2385   1.157       .  T
C2369      N2387   1.156       .  T
C2370      C2371   1.410       .  A
C2370      C2375   1.456       .  S
C2371      C2372   1.450       .  A
C2371      C2377   1.452       .  S
C2372      C2373   1.453   1_556  A
C2373      C2374   1.413       .  A
C2373      C2376   1.452       .  S
C2374      C2378   1.458       .  S
C2375      N2382   1.157       .  T
C2376      N2383   1.158       .  T
C2377      N2381   1.157       .  T
C2378      N2384   1.157       .  T
C2379      N2388   1.157       .  T
C2380      N2386   1.158       .  T
C2389      C2390   1.394       .  A
C2389      C2394   1.415       .  A
C2389      C2407   1.456       .  S
C2390      C2395   1.497       .  S
C2390      C2391   1.399   1_554  A
C2391      C2392   1.418       .  A
C2391      C2396   1.457       .  S
C2392      C2393   1.453   1_556  A
C2392      C2408   1.451       .  S
C2393      C2394   1.455       .  A
C2394      C2397   1.451       .  S
C2395      C2398   1.409       .  A
C2395      C2402   1.411       .  A
C2396      N2413   1.157       .  T
C2397      N2415   1.157       .  T
C2398      C2399   1.408       .  A
C2398      C2403   1.451       .  S
C2399      C2400   1.410       .  A
C2399      C2405   1.443       .  S
C2400      C2401   1.411       .  A
C2401      C2402   1.412       .  A
C2401      C2404   1.446       .  S
C2402      C2406   1.450   1_554  S
C2403      N2410   1.157       .  T
C2404      N2411   1.156   1_554  T
C2405      N2409   1.154       .  T
C2406      N2412   1.157       .  T
C2407      N2416   1.157       .  T
C2408      N2414   1.158       .  T
C2417      C2418   1.398   1_565  A
C2417      C2422   1.416       .  A
C2417      C2435   1.455       .  S
C2418      C2423   1.506       .  S
C2418      C2419   1.402       .  A
C2419      C2420   1.421       .  A
C2419      C2424   1.457       .  S
C2420      C2421   1.452       .  A
C2420      C2436   1.450       .  S
C2421      C2422   1.450   1_545  A
C2422      C2425   1.451       .  S
C2423      C2426   1.415       .  A
C2423      C2430   1.411       .  A
C2424      N2441   1.157       .  T
C2425      N2443   1.157       .  T
C2426      C2427   1.415       .  A
C2426      C2431   1.450       .  S
C2427      C2428   1.411       .  A
C2427      C2433   1.449       .  S
C2428      C2429   1.415       .  A
C2429      C2430   1.410       .  A
C2429      C2432   1.450   1_545  S
C2430      C2434   1.451   1_545  S
C2431      N2438   1.157       .  T
C2432      N2439   1.157       .  T
C2433      N2437   1.157       .  T
C2434      N2440   1.157       .  T
C2435      N2444   1.157       .  T
C2436      N2442   1.158       .  T
C2445      C2446   1.409       .  A
C2445      C2450   1.411       .  A
C2445      C2463   1.453       .  S
C2446      C2451   1.503       .  S
C2446      C2447   1.414   1_545  A
C2447      C2448   1.413       .  A
C2447      C2452   1.450       .  S
C2448      C2449   1.416   1_565  A
C2448      C2464   1.452       .  S
C2449      C2450   1.424       .  A
C2450      C2453   1.451       .  S
C2451      C2454   1.402   1_545  A
C2451      C2458   1.407       .  A
C2452      N2469   1.157       .  T
C2453      N2471   1.157       .  T
C2454      C2455   1.414       .  A
C2454      C2459   1.456       .  S
C2455      C2456   1.446   1_565  A
C2455      C2461   1.452       .  S
C2456      C2457   1.442       .  A
C2457      C2458   1.416       .  A
C2457      C2460   1.453       .  S
C2458      C2462   1.453       .  S
C2459      N2466   1.157       .  T
C2460      N2467   1.157       .  T
C2461      N2465   1.158       .  T
C2462      N2468   1.157       .  T
C2463      N2472   1.157       .  T
C2464      N2470   1.158       .  T
C2473      C2474   1.407       .  A
C2473      C2478   1.415       .  A
C2473      C2491   1.451       .  S
C2474      C2479   1.500       .  S
C2474      C2475   1.408       .  A
C2475      C2476   1.409       .  A
C2475      C2480   1.452       .  S
C2476      C2477   1.423       .  A
C2476      C2492   1.452       .  S
C2477      C2478   1.428       .  A
C2478      C2481   1.451       .  S
C2479      C2482   1.401       .  A
C2479      C2486   1.397       .  A
C2480      N2497   1.157       .  T
C2481      N2499   1.158       .  T
C2482      C2483   1.417       .  A
C2482      C2487   1.456       .  S
C2483      C2484   1.446       .  A
C2483      C2489   1.445       .  S
C2484      C2485   1.446       .  A
C2485      C2486   1.414       .  A
C2485      C2488   1.449       .  S
C2486      C2490   1.454       .  S
C2487      N2494   1.157       .  T
C2488      N2495   1.156       .  T
C2489      N2493   1.156       .  T
C2490      N2496   1.157       .  T
C2491      N2500   1.157       .  T
C2492      N2498   1.157       .  T
C2501      C2502   1.410       .  A
C2501      C2506   1.418       .  A
C2501      C2519   1.452       .  S
C2502      C2507   1.518       .  S
C2502      C2503   1.417       .  A
C2503      C2504   1.417       .  A
C2503      C2508   1.449       .  S
C2504      C2505   1.419       .  A
C2504      C2520   1.452       .  S
C2505      C2506   1.429       .  A
C2506      C2509   1.451       .  S
C2507      C2510   1.411       .  A
C2507      C2514   1.400       .  A
C2508      N2525   1.157       .  T
C2509      N2527   1.158       .  T
C2510      C2511   1.427       .  A
C2510      C2515   1.453       .  S
C2511      C2512   1.443       .  A
C2511      C2517   1.447       .  S
C2512      C2513   1.452       .  A
C2513      C2514   1.414       .  A
C2513      C2516   1.454       .  S
C2514      C2518   1.455       .  S
C2515      N2522   1.157       .  T
C2516      N2523   1.157       .  T
C2517      N2521   1.158       .  T
C2518      N2524   1.157       .  T
C2519      N2528   1.157       .  T
C2520      N2526   1.158   1_565  T
C2529      C2530   1.409       .  A
C2529      C2534   1.425       .  A
C2529      C2547   1.452       .  S
C2530      C2535   1.508       .  S
C2530      C2531   1.396       .  A
C2531      C2532   1.405       .  A
C2531      C2536   1.458       .  S
C2532      C2533   1.451       .  A
C2532      C2548   1.449       .  S
C2533      C2534   1.445       .  A
C2534      C2537   1.446       .  S
C2535      C2538   1.407       .  A
C2535      C2542   1.418       .  A
C2536      N2553   1.158       .  T
C2537      N2555   1.158       .  T
C2538      C2539   1.412       .  A
C2538      C2543   1.452       .  S
C2539      C2540   1.433       .  A
C2539      C2545   1.453       .  S
C2540      C2541   1.420       .  A
C2541      C2542   1.413       .  A
C2541      C2544   1.452       .  S
C2542      C2546   1.452       .  S
C2543      N2550   1.157       .  T
C2544      N2551   1.158       .  T
C2545      N2549   1.158       .  T
C2546      N2552   1.157       .  T
C2547      N2556   1.157       .  T
C2548      N2554   1.157       .  T
C2557      C2558   1.406       .  A
C2557      C2562   1.403       .  A
C2557      C2575   1.454       .  S
C2558      C2563   1.490       .  S
C2558      C2559   1.410       .  A
C2559      C2560   1.410       .  A
C2559      C2564   1.450       .  S
C2560      C2561   1.415       .  A
C2560      C2576   1.449       .  S
C2561      C2562   1.421       .  A
C2562      C2565   1.450       .  S
C2563      C2566   1.400       .  A
C2563      C2570   1.401       .  A
C2564      N2581   1.157       .  T
C2565      N2583   1.156       .  T
C2566      C2567   1.411       .  A
C2566      C2571   1.455       .  S
C2567      C2568   1.444       .  A
C2567      C2573   1.451       .  S
C2568      C2569   1.442       .  A
C2569      C2570   1.410       .  A
C2569      C2572   1.451       .  S
C2570      C2574   1.454       .  S
C2571      N2578   1.157       .  T
C2572      N2579   1.157       .  T
C2573      N2577   1.158       .  T
C2574      N2580   1.157       .  T
C2575      N2584   1.157       .  T
C2576      N2582   1.157       .  T
C2585      C2586   1.399       .  A
C2585      C2590   1.420       .  A
C2585      C2603   1.456       .  S
C2586      C2591   1.499       .  S
C2586      C2587   1.397       .  A
C2587      C2588   1.412       .  A
C2587      C2592   1.457       .  S
C2588      C2589   1.444       .  A
C2588      C2604   1.446       .  S
C2589      C2590   1.452       .  A
C2590      C2593   1.449       .  S
C2591      C2594   1.415       .  A
C2591      C2598   1.410       .  A
C2592      N2609   1.157       .  T
C2593      N2611   1.158       .  T
C2594      C2595   1.410       .  A
C2594      C2599   1.450       .  S
C2595      C2596   1.408       .  A
C2595      C2601   1.450       .  S
C2596      C2597   1.414       .  A
C2597      C2598   1.409       .  A
C2597      C2600   1.451       .  S
C2598      C2602   1.451       .  S
C2599      N2606   1.157       .  T
C2600      N2607   1.157       .  T
C2601      N2605   1.157       .  T
C2602      N2608   1.157       .  T
C2603      N2612   1.157       .  T
C2604      N2610   1.157       .  T
C2613      C2614   1.400       .  A
C2613      C2618   1.421       .  A
C2613      C2631   1.457       .  S
C2614      C2619   1.503       .  S
C2614      C2615   1.398       .  A
C2615      C2616   1.415       .  A
C2615      C2620   1.456       .  S
C2616      C2617   1.448       .  A
C2616      C2632   1.448       .  S
C2617      C2618   1.446       .  A
C2618      C2621   1.443   1_554  S
C2619      C2622   1.415       .  A
C2619      C2626   1.412       .  A
C2620      N2637   1.157       .  T
C2621      N2639   1.158       .  T
C2622      C2623   1.409       .  A
C2622      C2627   1.451       .  S
C2623      C2624   1.411       .  A
C2623      C2629   1.452       .  S
C2624      C2625   1.415       .  A
C2625      C2626   1.412       .  A
C2625      C2628   1.451       .  S
C2626      C2630   1.450       .  S
C2627      N2634   1.157       .  T
C2628      N2635   1.157       .  T
C2629      N2633   1.157       .  T
C2630      N2636   1.157       .  T
C2631      N2640   1.158       .  T
C2632      N2638   1.157       .  T
C2641      C2642   1.410       .  A
C2641      C2646   1.413       .  A
C2641      C2659   1.451       .  S
C2642      C2647   1.501       .  S
C2642      C2643   1.410       .  A
C2643      C2644   1.409       .  A
C2643      C2648   1.453       .  S
C2644      C2645   1.420       .  A
C2644      C2660   1.451       .  S
C2645      C2646   1.419       .  A
C2646      C2649   1.448       .  S
C2647      C2650   1.399       .  A
C2647      C2654   1.401       .  A
C2648      N2665   1.157       .  T
C2649      N2667   1.156   1_565  T
C2650      C2651   1.411       .  A
C2650      C2655   1.452       .  S
C2651      C2652   1.442       .  A
C2651      C2657   1.449       .  S
C2652      C2653   1.444       .  A
C2653      C2654   1.418       .  A
C2653      C2656   1.440   1_554  S
C2654      C2658   1.457       .  S
C2655      N2662   1.157       .  T
C2656      N2663   1.158       .  T
C2657      N2661   1.157       .  T
C2658      N2664   1.157       .  T
C2659      N2668   1.157       .  T
C2660      N2666   1.157       .  T
C2669      C2670   1.394       .  A
C2669      C2674   1.412       .  A
C2669      C2687   1.455       .  S
C2670      C2675   1.495       .  S
C2670      C2671   1.399       .  A
C2671      C2672   1.416       .  A
C2671      C2676   1.458       .  S
C2672      C2673   1.451       .  A
C2672      C2688   1.446       .  S
C2673      C2674   1.453       .  A
C2674      C2677   1.452   1_554  S
C2675      C2678   1.407       .  A
C2675      C2682   1.406       .  A
C2676      N2693   1.157       .  T
C2677      N2695   1.157       .  T
C2678      C2679   1.410       .  A
C2678      C2683   1.453       .  S
C2679      C2680   1.427       .  A
C2679      C2685   1.453       .  S
C2680      C2681   1.424       .  A
C2681      C2682   1.408       .  A
C2681      C2684   1.452       .  S
C2682      C2686   1.451       .  S
C2683      N2690   1.157       .  T
C2684      N2691   1.157       .  T
C2685      N2689   1.158       .  T
C2686      N2692   1.157       .  T
C2687      N2696   1.157       .  T
C2688      N2694   1.157       .  T
C2697      C2698   1.413       .  A
C2697      C2702   1.411       .  A
C2697      C2715   1.451       .  S
C2698      C2703   1.506       .  S
C2698      C2699   1.415       .  A
C2699      C2700   1.412       .  A
C2699      C2704   1.452       .  S
C2700      C2701   1.415       .  A
C2700      C2716   1.451       .  S
C2701      C2702   1.412       .  A
C2702      C2705   1.447       .  S
C2703      C2706   1.405       .  A
C2703      C2710   1.401       .  A
C2704      N2721   1.157       .  T
C2705      N2723   1.156       .  T
C2706      C2707   1.423       .  A
C2706      C2711   1.456       .  S
C2707      C2708   1.443       .  A
C2707      C2713   1.441       .  S
C2708      C2709   1.443       .  A
C2709      C2710   1.409       .  A
C2709      C2712   1.450       .  S
C2710      C2714   1.454       .  S
C2711      N2718   1.157       .  T
C2712      N2719   1.157       .  T
C2713      N2717   1.158       .  T
C2714      N2720   1.157       .  T
C2715      N2724   1.157       .  T
C2716      N2722   1.157       .  T
C2725      C2726   1.398       .  A
C2725      C2730   1.413       .  A
C2725      C2743   1.457       .  S
C2726      C2731   1.510       .  S
C2726      C2727   1.406       .  A
C2727      C2728   1.425       .  A
C2727      C2732   1.453       .  S
C2728      C2729   1.440       .  A
C2728      C2744   1.445       .  S
C2729      C2730   1.455       .  A
C2730      C2733   1.454       .  S
C2731      C2734   1.410       .  A
C2731      C2738   1.409       .  A
C2732      N2749   1.157       .  T
C2733      N2751   1.158       .  T
C2734      C2735   1.419       .  A
C2734      C2739   1.452       .  S
C2735      C2736   1.429       .  A
C2735      C2741   1.452       .  S
C2736      C2737   1.429       .  A
C2737      C2738   1.414       .  A
C2737      C2740   1.451       .  S
C2738      C2742   1.453       .  S
C2739      N2746   1.157       .  T
C2740      N2747   1.157       .  T
C2741      N2745   1.158       .  T
C2742      N2748   1.157       .  T
C2743      N2752   1.157       .  T
C2744      N2750   1.157       .  T
C2753      C2754   1.413       .  A
C2753      C2758   1.413       .  A
C2753      C2771   1.449       .  S
C2754      C2759   1.502       .  S
C2754      C2755   1.416       .  A
C2755      C2756   1.411       .  A
C2755      C2760   1.451       .  S
C2756      C2757   1.410       .  A
C2756      C2772   1.451       .  S
C2757      C2758   1.411       .  A
C2758      C2761   1.451       .  S
C2759      C2762   1.395       .  A
C2759      C2766   1.408       .  A
C2760      N2777   1.157       .  T
C2761      N2779   1.157       .  T
C2762      C2763   1.404       .  A
C2762      C2767   1.457       .  S
C2763      C2764   1.450       .  A
C2763      C2769   1.451       .  S
C2764      C2765   1.439       .  A
C2765      C2766   1.428       .  A
C2765      C2768   1.446       .  S
C2766      C2770   1.451       .  S
C2767      N2774   1.157       .  T
C2768      N2775   1.157       .  T
C2769      N2773   1.157       .  T
C2770      N2776   1.157       .  T
C2771      N2780   1.157       .  T
C2772      N2778   1.157       .  T
C2781      C2782   1.394       .  A
C2781      C2786   1.412       .  A
C2781      C2799   1.456       .  S
C2782      C2787   1.504       .  S
C2782      C2783   1.405       .  A
C2783      C2784   1.424       .  A
C2783      C2788   1.456       .  S
C2784      C2785   1.446       .  A
C2784      C2800   1.442       .  S
C2785      C2786   1.452       .  A
C2786      C2789   1.449       .  S
C2787      C2790   1.417       .  A
C2787      C2794   1.407       .  A
C2788      N2805   1.158       .  T
C2789      N2807   1.157       .  T
C2790      C2791   1.415       .  A
C2790      C2795   1.450       .  S
C2791      C2792   1.410       .  A
C2791      C2797   1.447       .  S
C2792      C2793   1.414       .  A
C2793      C2794   1.406       .  A
C2793      C2796   1.447       .  S
C2794      C2798   1.449       .  S
C2795      N2802   1.157       .  T
C2796      N2803   1.155       .  T
C2797      N2801   1.156       .  T
C2798      N2804   1.156       .  T
C2799      N2808   1.157       .  T
C2800      N2806   1.156       .  T
C2809      C2810   1.407   1_565  A
C2809      C2814   1.407       .  A
C2809      C2827   1.451       .  S
C2810      C2815   1.493       .  S
C2810      C2811   1.411       .  A
C2811      C2812   1.409       .  A
C2811      C2816   1.451       .  S
C2812      C2813   1.414       .  A
C2812      C2828   1.448       .  S
C2813      C2814   1.420   1_545  A
C2814      C2817   1.449       .  S
C2815      C2818   1.401   1_545  A
C2815      C2822   1.400       .  A
C2816      N2833   1.157       .  T
C2817      N2835   1.156       .  T
C2818      C2819   1.414       .  A
C2818      C2823   1.453       .  S
C2819      C2820   1.445   1_565  A
C2819      C2825   1.452       .  S
C2820      C2821   1.448       .  A
C2821      C2822   1.408       .  A
C2821      C2824   1.454       .  S
C2822      C2826   1.455       .  S
C2823      N2830   1.157       .  T
C2824      N2831   1.158       .  T
C2825      N2829   1.157       .  T
C2826      N2832   1.157       .  T
C2827      N2836   1.157       .  T
C2828      N2834   1.156       .  T
C2837      C2838   1.411       .  A
C2837      C2842   1.428       .  A
C2837      C2855   1.454       .  S
C2838      C2843   1.527       .  S
C2838      C2839   1.413   1_545  A
C2839      C2840   1.409       .  A
C2839      C2844   1.447       .  S
C2840      C2841   1.420   1_565  A
C2840      C2856   1.446       .  S
C2841      C2842   1.461       .  A
C2842      C2845   1.452       .  S
C2843      C2846   1.417   1_545  A
C2843      C2850   1.424       .  A
C2844      N2861   1.157       .  T
C2845      N2863   1.158       .  T
C2846      C2847   1.414       .  A
C2846      C2851   1.452       .  S
C2847      C2848   1.420   1_565  A
C2847      C2853   1.450       .  S
C2848      C2849   1.416       .  A
C2849      C2850   1.422       .  A
C2849      C2852   1.453       .  S
C2850      C2854   1.449       .  S
C2851      N2858   1.157       .  T
C2852      N2859   1.158       .  T
C2853      N2857   1.157       .  T
C2854      N2860   1.157       .  T
C2855      N2864   1.158       .  T
C2856      N2862   1.158       .  T
C2865      C2866   1.398       .  A
C2865      C2870   1.414       .  A
C2865      C2883   1.456       .  S
C2866      C2871   1.511       .  S
C2866      C2867   1.407       .  A
C2867      C2868   1.426       .  A
C2867      C2872   1.452       .  S
C2868      C2869   1.441       .  A
C2868      C2884   1.448       .  S
C2869      C2870   1.452       .  A
C2870      C2873   1.451       .  S
C2871      C2874   1.413       .  A
C2871      C2878   1.413       .  A
C2872      N2889   1.157       .  T
C2873      N2891   1.157       .  T
C2874      C2875   1.413       .  A
C2874      C2879   1.450       .  S
C2875      C2876   1.413       .  A
C2875      C2881   1.448       .  S
C2876      C2877   1.418       .  A
C2877      C2878   1.419       .  A
C2877      C2880   1.449       .  S
C2878      C2882   1.450       .  S
C2879      N2886   1.157       .  T
C2880      N2887   1.157       .  T
C2881      N2885   1.156       .  T
C2882      N2888   1.157       .  T
C2883      N2892   1.157       .  T
C2884      N2890   1.157       .  T
C2893      C2894   1.414       .  A
C2893      C2898   1.412       .  A
C2893      C2911   1.449       .  S
C2894      C2899   1.502       .  S
C2894      C2895   1.407       .  A
C2895      C2896   1.410       .  A
C2895      C2900   1.452       .  S
C2896      C2897   1.425       .  A
C2896      C2912   1.453       .  S
C2897      C2898   1.419       .  A
C2898      C2901   1.453       .  S
C2899      C2902   1.396       .  A
C2899      C2906   1.404       .  A
C2900      N2917   1.157       .  T
C2901      N2919   1.158       .  T
C2902      C2903   1.413       .  A
C2902      C2907   1.457       .  S
C2903      C2904   1.454       .  A
C2903      C2909   1.452       .  S
C2904      C2905   1.445       .  A
C2905      C2906   1.423       .  A
C2905      C2908   1.445       .  S
C2906      C2910   1.454       .  S
C2907      N2914   1.157       .  T
C2908      N2915   1.158       .  T
C2909      N2913   1.158       .  T
C2910      N2916   1.157       .  T
C2911      N2920   1.157       .  T
C2912      N2918   1.157       .  T
C2921      C2922   1.411       .  A
C2921      C2926   1.407       .  A
C2921      C2939   1.450       .  S
C2922      C2927   1.496       .  S
C2922      C2923   1.412       .  A
C2923      C2924   1.414       .  A
C2923      C2928   1.450       .  S
C2924      C2925   1.414       .  A
C2924      C2940   1.451       .  S
C2925      C2926   1.408       .  A
C2926      C2929   1.446       .  S
C2927      C2930   1.396       .  A
C2927      C2934   1.407       .  A
C2928      N2945   1.157       .  T
C2929      N2947   1.155       .  T
C2930      C2931   1.403       .  A
C2930      C2935   1.452       .  S
C2931      C2932   1.443       .  A
C2931      C2937   1.451       .  S
C2932      C2933   1.437       .  A
C2933      C2934   1.425       .  A
C2933      C2936   1.449       .  S
C2934      C2938   1.451       .  S
C2935      N2942   1.157       .  T
C2936      N2943   1.157       .  T
C2937      N2941   1.157       .  T
C2938      N2944   1.157       .  T
C2939      N2948   1.157       .  T
C2940      N2946   1.157   1_565  T
C2949      C2950   1.413       .  A
C2949      C2954   1.424       .  A
C2949      C2967   1.450       .  S
C2950      C2955   1.512       .  S
C2950      C2951   1.403       .  A
C2951      C2952   1.410       .  A
C2951      C2956   1.456       .  S
C2952      C2953   1.448       .  A
C2952      C2968   1.453       .  S
C2953      C2954   1.435       .  A
C2954      C2957   1.453       .  S
C2955      C2958   1.414       .  A
C2955      C2962   1.418       .  A
C2956      N2973   1.158       .  T
C2957      N2975   1.157       .  T
C2958      C2959   1.411       .  A
C2958      C2963   1.451       .  S
C2959      C2960   1.415       .  A
C2959      C2965   1.449       .  S
C2960      C2961   1.413       .  A
C2961      C2962   1.416       .  A
C2961      C2964   1.451       .  S
C2962      C2966   1.450       .  S
C2963      N2970   1.157       .  T
C2964      N2971   1.158       .  T
C2965      N2969   1.157       .  T
C2966      N2972   1.157       .  T
C2967      N2976   1.157       .  T
C2968      N2974   1.158       .  T
C2977      C2978   1.415       .  A
C2977      C2982   1.413       .  A
C2977      C2995   1.450       .  S
C2978      C2983   1.504       .  S
C2978      C2979   1.412       .  A
C2979      C2980   1.409       .  A
C2979      C2984   1.451       .  S
C2980      C2981   1.413       .  A
C2980      C2996   1.450       .  S
C2981      C2982   1.409       .  A
C2982      C2985   1.450       .  S
C2983      C2986   1.401       .  A
C2983      C2990   1.398       .  A
C2984      N3001   1.157       .  T
C2985      N3003   1.157       .  T
C2986      C2987   1.419       .  A
C2986      C2991   1.457       .  S
C2987      C2988   1.454       .  A
C2987      C2993   1.452       .  S
C2988      C2989   1.449       .  A
C2989      C2990   1.417       .  A
C2989      C2992   1.451       .  S
C2990      C2994   1.455       .  S
C2991      N2998   1.157       .  T
C2992      N2999   1.157       .  T
C2993      N2997   1.159       .  T
C2994      N3000   1.157       .  T
C2995      N3004   1.157       .  T
C2996      N3002   1.157       .  T
C3005      C3006   1.401       .  A
C3005      C3010   1.420       .  A
C3005      C3023   1.456       .  S
C3006      C3011   1.509       .  S
C3006      C3007   1.398       .  A
C3007      C3008   1.417       .  A
C3007      C3012   1.456       .  S
C3008      C3009   1.451       .  A
C3008      C3024   1.448       .  S
C3009      C3010   1.455       .  A
C3010      C3013   1.451       .  S
C3011      C3014   1.412       .  A
C3011      C3018   1.411       .  A
C3012      N3029   1.157       .  T
C3013      N3031   1.158       .  T
C3014      C3015   1.415       .  A
C3014      C3019   1.452       .  S
C3015      C3016   1.424       .  A
C3015      C3021   1.452       .  S
C3016      C3017   1.426       .  A
C3017      C3018   1.413       .  A
C3017      C3020   1.452       .  S
C3018      C3022   1.452       .  S
C3019      N3026   1.157       .  T
C3020      N3027   1.158       .  T
C3021      N3025   1.158       .  T
C3022      N3028   1.157       .  T
C3023      N3032   1.157       .  T
C3024      N3030   1.157       .  T
C3033      C3034   1.404       .  A
C3033      C3038   1.415       .  A
C3033      C3051   1.455       .  S
C3034      C3039   1.516       .  S
C3034      C3035   1.406       .  A
C3035      C3036   1.425       .  A
C3035      C3040   1.454       .  S
C3036      C3037   1.446       .  A
C3036      C3052   1.448       .  S
C3037      C3038   1.453       .  A
C3038      C3041   1.457       .  S
C3039      C3042   1.412       .  A
C3039      C3046   1.410       .  A
C3040      N3057   1.157       .  T
C3041      N3059   1.158   1_556  T
C3042      C3043   1.418       .  A
C3042      C3047   1.452       .  S
C3043      C3044   1.430       .  A
C3043      C3049   1.451       .  S
C3044      C3045   1.425       .  A
C3045      C3046   1.417       .  A
C3045      C3048   1.447       .  S
C3046      C3050   1.452       .  S
C3047      N3054   1.157       .  T
C3048      N3055   1.156       .  T
C3049      N3053   1.158       .  T
C3050      N3056   1.157       .  T
C3051      N3060   1.157       .  T
C3052      N3058   1.158       .  T
C3061      C3062   1.400       .  A
C3061      C3066   1.419       .  A
C3061      C3079   1.457       .  S
C3062      C3067   1.501       .  S
C3062      C3063   1.398       .  A
C3063      C3064   1.413       .  A
C3063      C3068   1.454       .  S
C3064      C3065   1.449       .  A
C3064      C3080   1.453       .  S
C3065      C3066   1.453       .  A
C3066      C3069   1.449       .  S
C3067      C3070   1.410       .  A
C3067      C3074   1.414       .  A
C3068      N3085   1.157       .  T
C3069      N3087   1.158       .  T
C3070      C3071   1.409       .  A
C3070      C3075   1.451       .  S
C3071      C3072   1.412       .  A
C3071      C3077   1.445       .  S
C3072      C3073   1.410       .  A
C3073      C3074   1.412       .  A
C3073      C3076   1.449       .  S
C3074      C3078   1.450       .  S
C3075      N3082   1.157       .  T
C3076      N3083   1.157       .  T
C3077      N3081   1.155       .  T
C3078      N3084   1.157       .  T
C3079      N3088   1.157       .  T
C3080      N3086   1.157   1_556  T
C3089      C3090   1.407       .  A
C3089      C3094   1.414       .  A
C3089      C3107   1.450       .  S
C3090      C3095   1.496       .  S
C3090      C3091   1.403       .  A
C3091      C3092   1.410       .  A
C3091      C3096   1.454       .  S
C3092      C3093   1.436       .  A
C3092      C3108   1.454       .  S
C3093      C3094   1.426       .  A
C3094      C3097   1.450       .  S
C3095      C3098   1.403       .  A
C3095      C3102   1.398       .  A
C3096      N3113   1.157       .  T
C3097      N3115   1.158       .  T
C3098      C3099   1.423       .  A
C3098      C3103   1.452       .  S
C3099      C3100   1.444       .  A
C3099      C3105   1.451       .  S
C3100      C3101   1.438       .  A
C3101      C3102   1.405       .  A
C3101      C3104   1.445       .  S
C3102      C3106   1.454       .  S
C3103      N3110   1.157       .  T
C3104      N3111   1.155       .  T
C3105      N3109   1.158       .  T
C3106      N3112   1.157       .  T
C3107      N3116   1.157       .  T
C3108      N3114   1.158       .  T
C3117      C3118   1.403       .  A
C3117      C3122   1.406       .  A
C3117      C3135   1.452       .  S
C3118      C3123   1.485       .  S
C3118      C3119   1.404       .  A
C3119      C3120   1.407       .  A
C3119      C3124   1.452       .  S
C3120      C3121   1.428       .  A
C3120      C3136   1.452       .  S
C3121      C3122   1.422       .  A
C3122      C3125   1.448       .  S
C3123      C3126   1.399       .  A
C3123      C3130   1.396       .  A
C3124      N3141   1.157       .  T
C3125      N3143   1.156       .  T
C3126      C3127   1.411       .  A
C3126      C3131   1.458       .  S
C3127      C3128   1.454       .  A
C3127      C3133   1.452       .  S
C3128      C3129   1.434       .  A
C3129      C3130   1.407       .  A
C3129      C3132   1.446       .  S
C3130      C3134   1.451       .  S
C3131      N3138   1.157       .  T
C3132      N3139   1.157       .  T
C3133      N3137   1.157       .  T
C3134      N3140   1.157       .  T
C3135      N3144   1.157       .  T
C3136      N3142   1.157       .  T
