geometry optimzed in LAMMPS
_audit_creation_date              2020-11-30 
_audit_creation_method            'lammps2cif' 
_symmetry_space_group_name_H-M    'P1' 
_symmetry_Int_Tables_number       1 
_symmetry_cell_setting            triclinic 
loop_ 
_symmetry_equiv_pos_as_xyz 
  x,y,z 
_cell_length_a                    46.66734128 
_cell_length_b                    46.7513961048791 
_cell_length_c                    46.53730865270215 
_cell_angle_alpha                 89.88028395329586 
_cell_angle_beta                  90.37016365447101 
_cell_angle_gamma                 90.85641983807737 
loop_ 
_atom_site_label 
_atom_site_type_symbol 
_atom_site_fract_x 
_atom_site_fract_y 
_atom_site_fract_z 
_atom_site_charge 
O1          O  0.52769256  0.03987529  0.82771254    -0.87200
O2          O  0.52397256  0.03800994  0.66464109    -0.87400
O3          O  0.58251759  0.03044050  0.74227133    -0.89000
O4          O  0.51753640  0.09664506  0.74910323    -0.87800
O5          O  0.46845887  0.09551135  0.75130828    -0.87400
O6          O  0.58217708  0.98136130  0.74353047    -0.88700
O7          O  0.54709065  0.06446536  0.69942470    -0.87200
O8          O  0.55351698  0.06261776  0.79231233    -0.86800
Zr9        Zr  0.53336208  0.04683940  0.74665925     2.84300
O10         O  0.49220193  0.04623309  0.71792269    -1.08800
O11         O  0.53349956  0.00638724  0.77647345    -1.09500
C12         C  0.54755112  0.05732998  0.81887312     1.05900
C13         C  0.54142349  0.05808842  0.67298360     1.05900
C14         C  0.59496319  0.00595025  0.74089355     1.08800
C15         C  0.49295255  0.10888298  0.75163578     1.06600
H16         H  0.54920947  0.00529244  0.70573414     0.32200
O17         O  0.53281360  0.00545884  0.71830297    -1.29700
H18         H  0.49339183  0.06360020  0.78861752     0.31900
O19         O  0.49315545  0.04680271  0.77654685    -1.31400
O20         O  0.46025939  0.96994760  0.66662784    -0.87200
O21         O  0.45572382  0.97791166  0.82971799    -0.88700
O22         O  0.54581469  0.94488218  0.70193086    -0.87300
O23         O  0.43759435  0.06451165  0.70126182    -0.87300
O24         O  0.43312675  0.05988929  0.79400765    -0.87000
O25         O  0.55190037  0.95133210  0.79499772    -0.86800
O26         O  0.46638143  0.91539904  0.75320039    -0.87200
O27         O  0.40163377  0.97911574  0.74491557    -0.86700
O28         O  0.51555429  0.91578549  0.75297191    -0.87700
O29         O  0.40265249  0.02816263  0.74537779    -0.86900
O30         O  0.52410354  0.97130029  0.66655170    -0.87300
O31         O  0.52704867  0.97459243  0.83011432    -0.87000
O32         O  0.46005578  0.03917117  0.82956572    -0.86700
O33         O  0.45965491  0.03879352  0.66601086    -0.87100
O34         O  0.43707026  0.94417999  0.70166341    -0.87400
O35         O  0.43049098  0.95327028  0.79493563    -0.88700
Zr36       Zr  0.49177989  0.00492893  0.68951515     2.83100
Zr37       Zr  0.49308093  0.00641647  0.80610173     2.83500
Zr38       Zr  0.53255695  0.96504257  0.74826546     2.84100
Zr39       Zr  0.45202867  0.04573613  0.74762543     2.83400
Zr40       Zr  0.45118225  0.96443614  0.74822821     2.84200
O41         O  0.45220605  0.00536445  0.77683661    -1.09300
O42         O  0.49168614  0.96429201  0.71905038    -1.08800
C43         C  0.44318684  0.94969973  0.67511819     1.05900
C44         C  0.43516745  0.96102796  0.82121240     1.08500
C45         C  0.54074918  0.95113043  0.67531269     1.06100
C46         C  0.44294635  0.05881848  0.67472794     1.06400
C47         C  0.43976891  0.05566957  0.82065105     1.06000
C48         C  0.54663979  0.95726708  0.82154787     1.05600
C49         C  0.49086280  0.90307472  0.75489911     1.06000
C50         C  0.38944398  0.00369282  0.74400803     1.05500
H51         H  0.49190562  0.94855997  0.79077422     0.32200
O52         O  0.49208956  0.96489558  0.77798758    -1.30400
H53         H  0.43429720  0.00465834  0.70617640     0.32200
O54         O  0.45102843  0.00488182  0.71843576    -1.31700
C55         C  0.68084274  0.20377119  0.50437348     0.85800
C56         C  0.66756966  0.18452265  0.52763013    -0.54400
C57         C  0.63832302  0.18470792  0.52787968     0.08700
C58         C  0.62490232  0.20432999  0.50499757     0.19700
C59         C  0.66681470  0.19327452  0.47645468    -0.55200
C60         C  0.63751802  0.19314253  0.47650822     0.08800
C61         C  0.66835505  0.23319328  0.50992968    -0.54700
C62         C  0.63914969  0.23413071  0.51009882     0.09400
H63         H  0.67953756  0.17112404  0.54224497     0.13900
H64         H  0.60116387  0.20428978  0.50523019    -0.00400
H65         H  0.67935591  0.18466491  0.45900989     0.14200
H66         H  0.68213485  0.25156941  0.51434103     0.14000
O67         O  0.55026526  0.07608873  0.29614328    -0.87200
O68         O  0.44182961  0.95346930  0.29253207    -0.87400
O69         O  0.46399291  0.04484062  0.32990328    -0.89000
O70         O  0.52784510  0.97820930  0.32933286    -0.87800
O71         O  0.55201746  0.95405432  0.29433520    -0.87400
O72         O  0.44305149  0.07235971  0.29484629    -0.88700
O73         O  0.46400035  0.97929314  0.32840909    -0.87200
O74         O  0.52717344  0.04926458  0.33052371    -0.86800
Zr75       Zr  0.49721634  0.01347110  0.30599371     2.84300
O76         O  0.49708098  0.97313910  0.27644837    -1.08800
O77         O  0.49787649  0.05487153  0.27738047    -1.09500
C78         C  0.54361877  0.07029276  0.32249596     1.05900
C79         C  0.44698635  0.95915441  0.31924630     1.05900
C80         C  0.44735875  0.06500139  0.32134167     1.08800
C81         C  0.54543279  0.95891054  0.32077552     1.06600
H82         H  0.43996131  0.01381202  0.28848314     0.32200
O83         O  0.45671149  0.01416145  0.27636810    -1.29700
H84         H  0.55517493  0.01461248  0.29057862     0.31900
O85         O  0.53867701  0.01462237  0.27798542    -1.31400
O86         O  0.43835183  0.96181995  0.19936699    -0.87200
O87         O  0.56095736  0.06856246  0.20285242    -0.88700
O88         O  0.40768888  0.03919825  0.25053638    -0.87300
O89         O  0.52050960  0.92489967  0.24306716    -0.87300
O90         O  0.58780561  0.99146897  0.25068671    -0.87000
O91         O  0.47371028  0.10497542  0.24396139    -0.86800
O92         O  0.46617671  0.04687340  0.16522360    -0.87200
O93         O  0.53295518  0.98426601  0.16656090    -0.86700
O94         O  0.44008535  0.06942281  0.19991203    -0.87700
O95         O  0.55642112  0.95910030  0.20176412    -0.86900
O96         O  0.40725338  0.99012889  0.25035563    -0.87300
O97         O  0.52289243  0.10511336  0.24339657    -0.87000
O98         O  0.58826279  0.04053818  0.25207714    -0.86700
O99         O  0.47135388  0.92445774  0.24214989    -0.87100
O100        O  0.46529283  0.98411662  0.16467935    -0.87400
O101        O  0.53527606  0.04615969  0.16703361    -0.88700
Zr102      Zr  0.45661457  0.97397746  0.24669759     2.83100
Zr103      Zr  0.53893417  0.05595748  0.24895306     2.83500
Zr104      Zr  0.45752145  0.05531439  0.24748102     2.84100
Zr105      Zr  0.53818792  0.97411357  0.24813758     2.83400
Zr106      Zr  0.49906422  0.01550713  0.18981140     2.84200
O107        O  0.53917647  0.01535084  0.21987674    -1.09300
O108        O  0.45751302  0.01499562  0.21795696    -1.08800
C109        C  0.44467673  0.96737448  0.17296899     1.05900
C110        C  0.55614461  0.06233367  0.17614017     1.08500
C111        C  0.39477091  0.01457777  0.25208470     1.06100
C112        C  0.49586137  0.91204919  0.24065712     1.06400
C113        C  0.60077419  0.01609710  0.25227204     1.06000
C114        C  0.49840809  0.11763267  0.24168006     1.05600
C115        C  0.44635736  0.06387676  0.17346424     1.06000
C116        C  0.55143566  0.96587432  0.17530128     1.05500
H117        H  0.49907556  0.07272050  0.20618032     0.32200
O118        O  0.49869699  0.05620769  0.21870075    -1.30400
H119        H  0.49763755  0.95792001  0.20539174     0.32200
O120        O  0.49777738  0.97426694  0.21807632    -1.31700
C121        C  0.29957815  0.82654473  0.99887705     0.85800
C122        C  0.31026244  0.84162926  0.97146127    -0.54400
C123        C  0.31140197  0.87070886  0.97347040     0.08700
C124        C  0.30119249  0.88232722  0.00260848     0.19700
C125        C  0.31948951  0.83806002  0.02275158    -0.55200
C126        C  0.32030914  0.86731662  0.02500059     0.08800
C127        C  0.27052851  0.83994142  0.00491239    -0.54700
C128        C  0.27122015  0.86891472  0.00739150     0.09400
H129        H  0.31810605  0.83091619  0.95256263     0.13900
H130        H  0.30129589  0.90600007  0.00390794    -0.00400
H131        H  0.33195517  0.82401546  0.03639239     0.14200
H132        H  0.25094609  0.82735384  0.00753269     0.14000
C133        C  0.69444739  0.82741629  0.00198765     0.85800
C134        C  0.67445734  0.83716685  0.02638623    -0.54400
C135        C  0.66818522  0.86562632  0.02553909     0.08700
C136        C  0.68224230  0.88180880  0.00048037     0.19700
C137        C  0.67936050  0.83696021  0.97418861    -0.55200
C138        C  0.67243882  0.86536915  0.97326489     0.08800
C139        C  0.72061128  0.84748493  0.00492443    -0.54700
C140        C  0.71435205  0.87591334  0.00422128     0.09400
H141        H  0.66638540  0.82357693  0.04341840     0.13900
H142        H  0.67747584  0.90492185  0.00067637    -0.00400
H143        H  0.67451249  0.82207356  0.95692895     0.14200
H144        H  0.74229720  0.83977814  0.00769855     0.14000
C145        C  0.68519129  0.81907544  0.49815632     0.85800
C146        C  0.67360929  0.83621101  0.47237465    -0.54400
C147        C  0.64449653  0.83946638  0.47207489     0.08700
C148        C  0.62953953  0.82440454  0.49760601     0.19700
C149        C  0.67338066  0.83462956  0.52453480    -0.55200
C150        C  0.64423532  0.83748248  0.52433613     0.08800
C151        C  0.66856425  0.79062650  0.49697128    -0.54700
C152        C  0.63947071  0.79310441  0.49664828     0.09400
H153        H  0.68693888  0.84526288  0.45577884     0.13900
H154        H  0.60595029  0.82629295  0.49784525    -0.00400
H155        H  0.68709146  0.84329015  0.54143278     0.14200
H156        H  0.67918535  0.77011117  0.49693922     0.14000
C157        C  0.30355954  0.19960324  0.99741745     0.85800
C158        C  0.32053146  0.18805583  0.02335983    -0.54400
C159        C  0.32499537  0.15922322  0.02267660     0.08700
C160        C  0.31146258  0.14437864  0.99627967     0.19700
C161        C  0.32015997  0.18928690  0.97105990    -0.55200
C162        C  0.32440520  0.16041497  0.97031135     0.08800
C163        C  0.27574894  0.18164281  0.99745047    -0.54700
C164        C  0.27975215  0.15276209  0.99674947     0.09400
H165        H  0.32815514  0.20092715  0.04115144     0.13900
H166        H  0.31445707  0.12092269  0.99581445    -0.00400
H167        H  0.32848463  0.20388346  0.95486376     0.14200
H168        H  0.25463289  0.19110329  0.99763734     0.14000
C169        C  0.69163995  0.19538887  0.99302180     0.85800
C170        C  0.67052601  0.18220697  0.97097471    -0.54400
C171        C  0.66973194  0.15297356  0.97103686     0.08700
C172        C  0.68997115  0.13935102  0.99325470     0.19700
C173        C  0.68236505  0.18215764  0.02185521    -0.55200
C174        C  0.68097334  0.15280200  0.02223972     0.08800
C175        C  0.72028286  0.18146279  0.98606064    -0.54700
C176        C  0.71964111  0.15233644  0.98616845     0.09400
H177        H  0.65761277  0.19422765  0.95597071     0.13900
H178        H  0.68965690  0.11562521  0.99286864    -0.00400
H179        H  0.67562240  0.19530563  0.03969043     0.14200
H180        H  0.73965013  0.19376113  0.98139500     0.14000
C181        C  0.30500983  0.20024319  0.49680968     0.85800
C182        C  0.31590628  0.18149192  0.47197514    -0.54400
C183        C  0.34491148  0.17762781  0.47230948     0.08700
C184        C  0.36030153  0.19266088  0.49756276     0.19700
C185        C  0.31605062  0.18503557  0.52407432    -0.55200
C186        C  0.34509424  0.18086074  0.52447638     0.08800
C187        C  0.32283706  0.22792470  0.49474429    -0.54700
C188        C  0.35157566  0.22400484  0.49532285     0.09400
H189        H  0.30246403  0.17193299  0.45549797     0.13900
H190        H  0.38388043  0.19027325  0.49782679    -0.00400
H191        H  0.30185483  0.17741943  0.54091030     0.14200
H192        H  0.31346159  0.24902368  0.49322988     0.14000
C193        C  0.30909590  0.81339658  0.49433135     0.85800
C194        C  0.32327416  0.82591047  0.52162510    -0.54400
C195        C  0.35244312  0.82809698  0.52002808     0.08700
C196        C  0.36496074  0.81756230  0.49149937     0.19700
C197        C  0.32004017  0.83292507  0.46994643    -0.55200
C198        C  0.34929482  0.83513403  0.46834278     0.08800
C199        C  0.32401291  0.78496263  0.48971933    -0.54700
C200        C  0.35299446  0.78692808  0.48760118     0.09400
H201        H  0.31182401  0.83407776  0.53995951     0.13900
H202        H  0.38868977  0.81904263  0.49038578    -0.00400
H203        H  0.30575189  0.84411544  0.45541159     0.14200
H204        H  0.31234078  0.76477591  0.48754686     0.14000
O205        O  0.90323175  0.75716526  0.47201641    -0.87200
O206        O  0.02190241  0.75478298  0.58264325    -0.87400
O207        O  0.93972877  0.70941072  0.55158514    -0.89000
O208        O  0.93841146  0.80273052  0.55126626    -0.87800
O209        O  0.96132069  0.83798743  0.52533290    -0.87400
O210        O  0.96442907  0.67514828  0.52719586    -0.88700
O211        O  0.97279929  0.75426137  0.58374331    -0.87200
O212        O  0.90552906  0.75605055  0.52128072    -0.86800
Zr213      Zr  0.95547269  0.75636833  0.53457759     2.84300
O214        O  0.99539978  0.78697988  0.53345523    -1.08800
O215        O  0.95412450  0.72687561  0.49407152    -1.09500
C216        C  0.89178783  0.75799828  0.49729705     1.05900
C217        C  0.99766457  0.75293399  0.59591726     1.05900
C218        C  0.94587453  0.68317187  0.54590859     1.08800
C219        C  0.94376260  0.82922937  0.54489186     1.06600
H220        H  0.99757612  0.71649530  0.55063151     0.32200
O221        O  0.99674133  0.72868934  0.53388935    -1.29700
H222        H  0.93614831  0.79630272  0.49347271     0.31900
O223        O  0.95308193  0.78468122  0.49310852    -1.31400
O224        O  0.08545431  0.76230612  0.51424598    -0.87200
O225        O  0.96751733  0.75261007  0.40243583    -0.88700
O226        O  0.03174991  0.67793990  0.52450967    -0.87300
O227        O  0.02460692  0.83995045  0.52608566    -0.87300
O228        O  0.95919131  0.83528996  0.45757391    -0.87000
O229        O  0.95939471  0.67394363  0.46514071    -0.86800
O230        O  0.05257785  0.71296172  0.43553431    -0.87200
O231        O  0.04698542  0.80688514  0.43175862    -0.86700
O232        O  0.02865360  0.67748129  0.46024794    -0.87700
O233        O  0.02284133  0.84095912  0.45692604    -0.86900
O234        O  0.05645255  0.71376460  0.54809156    -0.87300
O235        O  0.93288244  0.70737825  0.44107681    -0.87000
O236        O  0.93415683  0.79995048  0.43363218    -0.86700
O237        O  0.05067875  0.80654540  0.55077221    -0.87100
O238        O  0.08391680  0.76349326  0.46494765    -0.87400
O239        O  0.01659466  0.75634022  0.40150327    -0.88700
Zr240      Zr  0.03674675  0.75935166  0.53253643     2.83100
Zr241      Zr  0.95192327  0.75495951  0.45258548     2.83500
Zr242      Zr  0.99578703  0.69974352  0.49320710     2.84100
Zr243      Zr  0.99320598  0.81506494  0.49171998     2.83400
Zr244      Zr  0.03386995  0.75914326  0.45049891     2.84200
O245        O  0.99201783  0.78577143  0.45104514    -1.09300
O246        O  0.03589710  0.73040607  0.49164948    -1.08800
C247        C  0.09734801  0.76422880  0.48930320     1.05900
C248        C  0.99188807  0.75323315  0.38925531     1.08500
C249        C  0.05128486  0.68715942  0.54220815     1.06100
C250        C  0.04310016  0.83255312  0.54546212     1.06400
C251        C  0.94051620  0.82643780  0.43883834     1.06000
C252        C  0.93846901  0.68136108  0.44852416     1.05600
C253        C  0.04752565  0.68644390  0.44205934     1.06000
C254        C  0.04039562  0.83319445  0.43712455     1.05500
H255        H  0.99352248  0.71542367  0.43501681     0.32200
O256        O  0.99379336  0.72786371  0.45155202    -1.30400
H257        H  0.05132181  0.80123109  0.49078204     0.32200
O258        O  0.03500476  0.78832292  0.49128371    -1.31700
O259        O  0.90470895  0.25156001  0.47557314    -0.87200
O260        O  0.02147345  0.26710875  0.58927902    -0.87400
O261        O  0.94122935  0.21187326  0.55961974    -0.89000
O262        O  0.93539606  0.30545896  0.55629191    -0.87800
O263        O  0.95845123  0.34103762  0.53084561    -0.87400
O264        O  0.96587154  0.17819264  0.53427998    -0.88700
O265        O  0.97241199  0.26360175  0.59017890    -0.87200
O266        O  0.90520558  0.25218260  0.52485488    -0.86800
Zr267      Zr  0.95452838  0.25941497  0.54104982     2.84300
O268        O  0.99434692  0.29045914  0.54001504    -1.08800
O269        O  0.95448846  0.23052557  0.50006517    -1.09500
C270        C  0.89243269  0.24940737  0.50026531     1.05900
C271        C  0.99720931  0.26667356  0.60242701     1.05900
C272        C  0.94802885  0.18571824  0.55393499     1.08800
C273        C  0.93981687  0.33198000  0.54929755     1.06600
H274        H  0.99720289  0.22117601  0.55804125     0.32200
O275        O  0.99637246  0.23270244  0.54082128    -1.29700
H276        H  0.93496635  0.29868199  0.49997346     0.31900
O277        O  0.95256981  0.28805004  0.49980406    -1.31400
O278        O  0.08525902  0.26214184  0.52289777    -0.87200
O279        O  0.96907151  0.26605727  0.40958104    -0.88700
O280        O  0.02969139  0.18203033  0.53299442    -0.87300
O281        O  0.02607201  0.34446637  0.53041181    -0.87300
O282        O  0.95655899  0.34040123  0.46741749    -0.87000
O283        O  0.96475793  0.17841668  0.46603214    -0.86800
O284        O  0.05191670  0.21722317  0.44014660    -0.87200
O285        O  0.04998820  0.30990657  0.44133291    -0.86700
O286        O  0.02924914  0.18204457  0.46638021    -0.87700
O287        O  0.02364994  0.34379050  0.46458169    -0.86900
O288        O  0.05387815  0.21773276  0.55729344    -0.87300
O289        O  0.94007370  0.21221639  0.44039455    -0.87000
O290        O  0.93185090  0.30441907  0.44407440    -0.86700
O291        O  0.05263624  0.31097158  0.55442058    -0.87100
O292        O  0.08471042  0.26137401  0.47364089    -0.87400
O293        O  0.01820774  0.26567505  0.40830799    -0.88700
Zr294      Zr  0.03619179  0.26357470  0.53953526     2.83100
Zr295      Zr  0.95327552  0.25929703  0.45886522     2.83500
Zr296      Zr  0.99621294  0.20375383  0.49975977     2.84100
Zr297      Zr  0.99258035  0.31896666  0.49873301     2.83400
Zr298      Zr  0.03484704  0.26285142  0.45787504     2.84200
O299        O  0.99312055  0.29002019  0.45796014    -1.09300
O300        O  0.03642127  0.23416239  0.49901387    -1.08800
C301        C  0.09762165  0.26037123  0.49826134     1.05900
C302        C  0.99327829  0.26799247  0.39637775     1.08500
C303        C  0.04809235  0.19113824  0.55178957     1.06100
C304        C  0.04598952  0.33700854  0.54824084     1.06400
C305        C  0.93681696  0.33104564  0.45006269     1.06000
C306        C  0.94680016  0.18614561  0.44633697     1.05600
C307        C  0.04669809  0.19079507  0.44669695     1.06000
C308        C  0.04292942  0.33596939  0.44651099     1.05500
H309        H  0.99508648  0.22053325  0.44104689     0.32200
O310        O  0.99488682  0.23217542  0.45817913    -1.30400
H311        H  0.05155148  0.30481352  0.49800819     0.32200
O312        O  0.03489659  0.29233982  0.49839607    -1.31700
C313        C  0.79553057  0.50887858  0.68101800     0.85800
C314        C  0.81129186  0.48244291  0.66966439    -0.54400
C315        C  0.81665315  0.48318587  0.64085929     0.08700
C316        C  0.80554123  0.51032207  0.62579809     0.19700
C317        C  0.81422646  0.53435977  0.67135799    -0.55200
C318        C  0.81972698  0.53530311  0.64254417     0.08800
C319        C  0.76842768  0.51045507  0.66231691    -0.54700
C320        C  0.77344056  0.51133381  0.63340945     0.09400
H321        H  0.81876920  0.46493820  0.68276579     0.13900
H322        H  0.80961811  0.51040896  0.60235640    -0.00400
H323        H  0.82221601  0.55037507  0.68636074     0.14200
H324        H  0.74703255  0.51109346  0.67133219     0.14000
C325        C  0.19206023  0.51309991  0.68329587     0.85800
C326        C  0.17809244  0.54011345  0.67092987    -0.54400
C327        C  0.17506217  0.54001367  0.64171545     0.08700
C328        C  0.18682874  0.51303962  0.62730956     0.19700
C329        C  0.17376078  0.48816578  0.67147188    -0.55200
C330        C  0.17045911  0.48820305  0.64226444     0.08800
C331        C  0.22049145  0.51052851  0.66736781    -0.54700
C332        C  0.21810975  0.51090092  0.63818941     0.09400
H333        H  0.17006049  0.55718687  0.68431762     0.13900
H334        H  0.18477226  0.51346871  0.60354877    -0.00400
H335        H  0.16450110  0.47139795  0.68455553     0.14200
H336        H  0.24109768  0.50993676  0.67835646     0.14000
C337        C  0.81278577  0.01027034  0.29744780     0.85800
C338        C  0.82178038  0.98308113  0.31364319    -0.54400
C339        C  0.85012357  0.98248962  0.32112064     0.08700
C340        C  0.86723828  0.00896738  0.31067475     0.19700
C341        C  0.82290799  0.03513500  0.31648334    -0.55200
C342        C  0.85139785  0.03465803  0.32345822     0.08800
C343        C  0.83281152  0.01117314  0.27137284    -0.54700
C344        C  0.86131665  0.01062313  0.27820791     0.09400
H345        H  0.80733072  0.96525997  0.31791879     0.13900
H346        H  0.89032779  0.00869281  0.31624476    -0.00400
H347        H  0.80867851  0.05194623  0.32331014     0.14200
H348        H  0.82518103  0.01156094  0.24928551     0.14000
C349        C  0.80486139  0.00350515  0.68590060     0.85800
C350        C  0.81822463  0.03066512  0.67259984    -0.54400
C351        C  0.84734777  0.02986478  0.66969779     0.08700
C352        C  0.86065233  0.00205120  0.68113886     0.19700
C353        C  0.81569815  0.97886798  0.66696312    -0.55200
C354        C  0.84491295  0.97816179  0.66418752     0.08800
C355        C  0.82077567  0.99936525  0.71443960    -0.54700
C356        C  0.84983444  0.99852048  0.71227481     0.09400
H357        H  0.80551406  0.04844473  0.66495967     0.13900
H358        H  0.88432469  0.00198867  0.67933733    -0.00400
H359        H  0.80199884  0.96277902  0.65716967     0.14200
H360        H  0.80980018  0.99721227  0.73487437     0.14000
C361        C  0.79156567  0.50986574  0.31626025     0.85800
C362        C  0.80474403  0.53601698  0.33192038    -0.54400
C363        C  0.80743208  0.53229280  0.36095824     0.08700
C364        C  0.79652604  0.50316019  0.37188099     0.19700
C365        C  0.81085866  0.48480409  0.32535536    -0.55200
C366        C  0.81372970  0.48117241  0.35457014     0.08800
C367        C  0.76324035  0.50417280  0.33157972    -0.54700
C368        C  0.76569288  0.50026033  0.36038042     0.09400
H369        H  0.81270510  0.55524023  0.32149817     0.13900
H370        H  0.79808851  0.50128660  0.39555732    -0.00400
H371        H  0.82088279  0.47108389  0.30971198     0.14200
H372        H  0.74276766  0.50252676  0.32037354     0.14000
C373        C  0.19337557  0.50980292  0.31268348     0.85800
C374        C  0.17372229  0.48490571  0.32247410    -0.54400
C375        C  0.16720678  0.48517309  0.35101649     0.08700
C376        C  0.18100378  0.51054929  0.36734947     0.19700
C377        C  0.17742731  0.53667343  0.32218492    -0.55200
C378        C  0.17089471  0.53719314  0.35078585     0.08800
C379        C  0.21955435  0.50807302  0.33260352    -0.54700
C380        C  0.21321249  0.50813210  0.36118878     0.09400
H381        H  0.16553372  0.46822612  0.30861327     0.13900
H382        H  0.17575783  0.51101324  0.39052840    -0.00400
H383        H  0.17157806  0.55364986  0.30740372     0.14200
H384        H  0.24128292  0.50618957  0.32465964     0.14000
C385        C  0.18421946  0.01687732  0.30521418     0.85800
C386        C  0.17343812  0.03985264  0.32608581    -0.54400
C387        C  0.14422161  0.04008972  0.32931970     0.08700
C388        C  0.12851778  0.01725192  0.31072720     0.19700
C389        C  0.17125887  0.98870496  0.31661979    -0.55200
C390        C  0.14207280  0.98867113  0.32024893     0.08800
C391        C  0.16805433  0.02292820  0.27735337    -0.54700
C392        C  0.13907577  0.02323952  0.27982324     0.09400
H393        H  0.18728483  0.05530293  0.33660567     0.13900
H394        H  0.10497146  0.01735847  0.31245507    -0.00400
H395        H  0.18463188  0.97063382  0.32181995     0.14200
H396        H  0.17885551  0.02669120  0.25703732     0.14000
C397        C  0.17872549  0.00781671  0.69148808     0.85800
C398        C  0.16412741  0.98149010  0.67741519    -0.54400
C399        C  0.13530744  0.98428782  0.67292325     0.08700
C400        C  0.12364893  0.01313660  0.68313091    -0.21900
C401        C  0.17079507  0.03293575  0.67176677    -0.55200
C402        C  0.14193777  0.03595893  0.66744608     0.08800
C403        C  0.16162480  0.01271357  0.71900023    -0.54700
C404        C  0.13298144  0.01604408  0.71470148     0.09400
H405        H  0.17517422  0.96258409  0.67046512     0.13900
H406        H  0.10020563  0.01491993  0.67986759    -0.00400
H407        H  0.18676033  0.04763481  0.66308480     0.14200
H408        H  0.17157195  0.01443407  0.74012106     0.14000
O409        O  0.74511524  0.60362712  0.97350132    -0.87200
O410        O  0.74971103  0.48734085  0.08803641    -0.87400
O411        O  0.70172354  0.56970154  0.05714757    -0.89000
O412        O  0.79464662  0.57016699  0.05310841    -0.87800
O413        O  0.82798789  0.54364170  0.02932064    -0.87400
O414        O  0.66628183  0.54773132  0.03035737    -0.88700
O415        O  0.75035118  0.53642694  0.08843303    -0.87200
O416        O  0.74560580  0.60297474  0.02276885    -0.86800
Zr417      Zr  0.74723787  0.55309956  0.03877487     2.84300
O418        O  0.77471493  0.51163770  0.03792580    -1.08800
O419        O  0.71813324  0.55417839  0.99774356    -1.09500
C420        C  0.74445003  0.61609345  0.99826579     1.05900
C421        C  0.75156937  0.51178888  0.10101614     1.05900
C422        C  0.67522120  0.56500293  0.05024209     1.08800
C423        C  0.82063824  0.56358213  0.04681090     1.06600
H424        H  0.70507773  0.51309539  0.05602226     0.32200
O425        O  0.71668072  0.51292938  0.03889711    -1.29700
H426        H  0.78796220  0.56995709  0.99792873     0.31900
O427        O  0.77574775  0.55312957  0.99768024    -1.31400
O428        O  0.73645763  0.42241225  0.02067675    -0.87200
O429        O  0.74908206  0.53880792  0.90692276    -0.88700
O430        O  0.66301721  0.48189807  0.03048811    -0.87300
O431        O  0.82540792  0.47731493  0.02865043    -0.87300
O432        O  0.82826715  0.54627086  0.96549603    -0.87000
O433        O  0.66553504  0.54777166  0.96489811    -0.86800
O434        O  0.69601070  0.45700158  0.93854686    -0.87200
O435        O  0.78933623  0.45295602  0.94054443    -0.86700
O436        O  0.66248063  0.48193374  0.96387571    -0.87700
O437        O  0.82516724  0.47788916  0.96394993    -0.86900
O438        O  0.69685859  0.45740091  0.05620798    -0.87300
O439        O  0.70080305  0.57116763  0.93955736    -0.87000
O440        O  0.79399050  0.57327541  0.94323317    -0.86700
O441        O  0.79024679  0.45262717  0.05314378    -0.87100
O442        O  0.73593444  0.42294712  0.97136859    -0.87400
O443        O  0.74628093  0.48977983  0.90604675    -0.88700
Zr444      Zr  0.74411284  0.47144880  0.03808882     2.83100
Zr445      Zr  0.74685633  0.55421668  0.95672671     2.83500
Zr446      Zr  0.68787484  0.51392351  0.99736828     2.84100
Zr447      Zr  0.80299651  0.51154653  0.99649073     2.83400
Zr448      Zr  0.74346020  0.47233020  0.95557463     2.84200
O449        O  0.77419748  0.51258989  0.95526634    -1.09300
O450        O  0.71524929  0.47268379  0.99690605    -1.08800
C451        C  0.73359715  0.41007020  0.99588979     1.05900
C452        C  0.74871865  0.51454217  0.89370271     1.08500
C453        C  0.67064392  0.46383997  0.05003825     1.06100
C454        C  0.81666128  0.45808456  0.04667060     1.06400
C455        C  0.82035277  0.56714817  0.94901639     1.06000
C456        C  0.67432087  0.56602862  0.94592062     1.05600
C457        C  0.66992130  0.46351851  0.94468756     1.06000
C458        C  0.81601305  0.45846028  0.94631313     1.05500
H459        H  0.70433274  0.51442191  0.93899169     0.32200
O460        O  0.71627355  0.51395308  0.95599461    -1.30400
H461        H  0.78356423  0.45363163  0.99655068     0.32200
O462        O  0.77258533  0.47100444  0.99670524    -1.31700
O463        O  0.25013671  0.60204056  0.97383470    -0.87200
O464        O  0.24182596  0.48772984  0.08904010    -0.87400
O465        O  0.20068250  0.57230962  0.05334941    -0.89000
O466        O  0.29328517  0.56543507  0.05856934    -0.87800
O467        O  0.32765677  0.54227981  0.03286998    -0.87400
O468        O  0.16460813  0.54696550  0.03073256    -0.88700
O469        O  0.24266737  0.53684323  0.08863318    -0.87200
O470        O  0.25130221  0.60159376  0.02305624    -0.86800
Zr471      Zr  0.24620083  0.55220328  0.03924809     2.84300
O472        O  0.27341647  0.51065965  0.03974621    -1.08800
O473        O  0.21644410  0.55312177  0.99881912    -1.09500
C474        C  0.25261094  0.61446987  0.99848962     1.05900
C475        C  0.24123593  0.51244920  0.10151315     1.05900
C476        C  0.17401578  0.56699720  0.04764025     1.08800
C477        C  0.31963376  0.55951515  0.05292343     1.06600
H478        H  0.20332623  0.51223234  0.05608283     0.32200
O479        O  0.21553951  0.51193384  0.03941889    -1.29700
H480        H  0.28814245  0.56849369  0.99866502     0.31900
O481        O  0.27530810  0.55213207  0.99868860    -1.31400
O482        O  0.24584099  0.42090048  0.02238057    -0.87200
O483        O  0.24261918  0.53755044  0.90842496    -0.88700
O484        O  0.16119383  0.47895815  0.02987346    -0.87300
O485        O  0.32441343  0.47740714  0.03301667    -0.87300
O486        O  0.32550897  0.54169423  0.96361455    -0.87000
O487        O  0.16402161  0.54733911  0.96674779    -0.86800
O488        O  0.19654135  0.45356618  0.94203422    -0.87200
O489        O  0.28918067  0.45446560  0.93946172    -0.86700
O490        O  0.16246442  0.48014473  0.96466932    -0.87700
O491        O  0.32464478  0.47814389  0.96474036    -0.86900
O492        O  0.19522141  0.45347259  0.05442499    -0.87300
O493        O  0.19963838  0.57243064  0.94366513    -0.87000
O494        O  0.29104893  0.56633716  0.93878610    -0.86700
O495        O  0.28883264  0.45416492  0.05819679    -0.87100
O496        O  0.24517496  0.42165917  0.97308496    -0.87400
O497        O  0.24173284  0.48852611  0.90778480    -0.88700
Zr498      Zr  0.24292416  0.47035924  0.03947759     2.83100
Zr499      Zr  0.24524059  0.55257741  0.95821630     2.83500
Zr500      Zr  0.18649322  0.51251161  0.99841083     2.84100
Zr501      Zr  0.30246381  0.51055116  0.99895462     2.83400
Zr502      Zr  0.24330090  0.47123516  0.95739965     2.84200
O503        O  0.27327988  0.51154114  0.95788863    -1.09300
O504        O  0.21406445  0.47096958  0.99820260    -1.08800
C505        C  0.24704236  0.40860217  0.99749563     1.05900
C506        C  0.24114714  0.51327886  0.89531718     1.08500
C507        C  0.16892689  0.45952847  0.04803096     1.06100
C508        C  0.31542644  0.45971401  0.05252647     1.06400
C509        C  0.31713951  0.55931607  0.94392506     1.06000
C510        C  0.17308116  0.56706531  0.94939428     1.05600
C511        C  0.17036446  0.46031885  0.94722042     1.06000
C512        C  0.31576356  0.46024204  0.94534891     1.05500
H513        H  0.20281463  0.51271027  0.94047063     0.32200
O514        O  0.21499629  0.51227722  0.95730295    -1.30400
H515        H  0.28403329  0.45365828  0.99862906     0.32200
O516        O  0.27218571  0.47041830  0.99868042    -1.31700
C517        C  0.99823643  0.70668951  0.80939869     0.85800
C518        C  0.02260217  0.68752825  0.82001973    -0.54400
C519        C  0.02441056  0.68529937  0.84925952     0.08700
C520        C  0.00144395  0.70217413  0.86538979     0.19700
C521        C  0.97120939  0.69351223  0.82330521    -0.55200
C522        C  0.97273964  0.69086750  0.85258320     0.08800
C523        C  0.00297976  0.73517872  0.82505771    -0.54700
C524        C  0.00504265  0.73303174  0.85415416     0.09400
H525        H  0.03741553  0.67705310  0.80568431     0.13900
H526        H  0.00312628  0.70049278  0.88913485    -0.00400
H527        H  0.95306251  0.68511709  0.81135864     0.14200
H528        H  0.00510839  0.75552580  0.81387669     0.14000
C529        C  0.99085794  0.31363953  0.81466943     0.85800
C530        C  0.96272905  0.32569848  0.82623620    -0.54400
C531        C  0.96338318  0.33263958  0.85476563     0.08700
C532        C  0.99193076  0.32511548  0.86963807     0.19700
C533        C  0.01390374  0.33576930  0.82350686    -0.55200
C534        C  0.01489821  0.34154867  0.85233200     0.08800
C535        C  0.99647956  0.28761178  0.83389129    -0.54700
C536        C  0.99707714  0.29354300  0.86260958     0.09400
H537        H  0.94370058  0.32859046  0.81339959     0.13900
H538        H  0.99291514  0.32930822  0.89300450    -0.00400
H539        H  0.02832004  0.34566525  0.80807425     0.14200
H540        H  0.00027196  0.26635691  0.82546726     0.14000
C541        C  0.49049410  0.69293673  0.80229331     0.85800
C542        C  0.46394913  0.67794495  0.81498859    -0.54400
C543        C  0.46715226  0.64932947  0.81917398     0.08700
C544        C  0.49663779  0.63806541  0.81022826     0.19700
C545        C  0.51508519  0.68533741  0.82291559    -0.55200
C546        C  0.51868321  0.65662183  0.82699846     0.08800
C547        C  0.49655542  0.67629754  0.77478111    -0.54700
C548        C  0.50015466  0.64773667  0.77886353     0.09400
H549        H  0.44443347  0.68843341  0.82113445     0.13900
H550        H  0.49904015  0.61466312  0.81305439    -0.00400
H551        H  0.52844661  0.70154172  0.83326874     0.14200
H552        H  0.49835588  0.68639822  0.75379932     0.14000
C553        C  0.50010718  0.70133035  0.18969904     0.85800
C554        C  0.52322799  0.69044695  0.16905006    -0.54400
C555        C  0.52391590  0.66136432  0.16678875     0.08700
C556        C  0.50141157  0.64567723  0.18523226     0.19700
C557        C  0.47210158  0.68782764  0.17823429    -0.55200
C558        C  0.47265245  0.65866214  0.17536112     0.08800
C559        C  0.50617037  0.68578714  0.21803560    -0.54700
C560        C  0.50700526  0.65673967  0.21604053     0.09400
H561        H  0.53830117  0.70381323  0.15744395     0.13900
H562        H  0.50221054  0.62207062  0.18345446    -0.00400
H563        H  0.45420289  0.70071372  0.17121719     0.14200
H564        H  0.50920788  0.69711820  0.23819881     0.14000
C565        C  0.99178682  0.31708488  0.18412812     0.85800
C566        C  0.01972564  0.32834623  0.17035709    -0.54400
C567        C  0.01864093  0.33063343  0.14111854     0.08700
C568        C  0.98972162  0.32060793  0.12807056     0.19700
C569        C  0.96883418  0.33750658  0.17264373    -0.55200
C570        C  0.96751612  0.33931875  0.14323979     0.08800
C571        C  0.98526948  0.28866798  0.16919570    -0.54700
C572        C  0.98394759  0.29024474  0.13999276     0.09400
H573        H  0.03763246  0.33724779  0.18242689     0.13900
H574        H  0.98917432  0.32184453  0.10426928    -0.00400
H575        H  0.95450128  0.34892652  0.18668891     0.14200
H576        H  0.98180307  0.26881214  0.18094243     0.14000
C577        C  0.99509113  0.71035855  0.17652738     0.85800
C578        C  0.97173996  0.69042396  0.16375300    -0.54400
C579        C  0.97372786  0.68691192  0.13487275     0.08700
C580        C  0.99860301  0.70338206  0.12106368     0.19700
C581        C  0.02344267  0.69708360  0.16680499    -0.55200
C582        C  0.02516823  0.69303274  0.13771567     0.08800
C583        C  0.99263258  0.73806754  0.15922455    -0.54700
C584        C  0.99441600  0.73452889  0.13026739     0.09400
H585        H  0.95488068  0.67964560  0.17554456     0.13900
H586        H  0.99961499  0.70054840  0.09742542    -0.00400
H587        H  0.03977201  0.68998398  0.18182352     0.14200
H588        H  0.98957700  0.75878660  0.16918465     0.14000
C589        C  0.49262065  0.32035420  0.80707160     0.85800
C590        C  0.51978303  0.33482773  0.81992346    -0.54400
C591        C  0.51843339  0.36406248  0.82192081     0.08700
C592        C  0.48998740  0.37620903  0.81041254     0.19700
C593        C  0.46813153  0.33123134  0.82613867    -0.55200
C594        C  0.46661165  0.36053636  0.82802598     0.08800
C595        C  0.48819434  0.33538786  0.77819149    -0.54700
C596        C  0.48643765  0.36428833  0.77975446     0.09400
H597        H  0.53788167  0.32328569  0.82841338     0.13900
H598        H  0.48913629  0.39987851  0.81130077    -0.00400
H599        H  0.45311622  0.31682438  0.83674974     0.14200
H600        H  0.48608013  0.32393827  0.75796118     0.14000
C601        C  0.49579837  0.32926089  0.19732854     0.85800
C602        C  0.46777280  0.33802057  0.18218010    -0.54400
C603        C  0.46639881  0.36655517  0.17625354     0.08700
C604        C  0.49257556  0.38401158  0.18668043     0.19700
C605        C  0.51983863  0.34093580  0.17829911    -0.55200
C606        C  0.51837263  0.36960021  0.17233646     0.08800
C607        C  0.49693482  0.34812207  0.22425963    -0.54700
C608        C  0.49525990  0.37671912  0.21883347     0.09400
H609        H  0.45100011  0.32297299  0.17573899     0.13900
H610        H  0.49052228  0.40720740  0.18229942    -0.00400
H611        H  0.53683274  0.32729583  0.17085477     0.14200
H612        H  0.49672825  0.33983698  0.24602959     0.14000
O613        O  0.54447727  0.44431936  0.54074261    -0.87200
O614        O  0.45445949  0.49370818  0.41317089    -0.87400
O615        O  0.47525025  0.41906922  0.47800247    -0.89000
O616        O  0.55153172  0.46254804  0.44429675    -0.87800
O617        O  0.56930520  0.50865120  0.44693902    -0.87400
O618        O  0.44224051  0.43033780  0.51231553    -0.88700
O619        O  0.48403365  0.45592210  0.42259522    -0.87200
O620        O  0.53190499  0.42619073  0.49648931    -0.86800
Zr621      Zr  0.50525089  0.46148510  0.46999502     2.84300
O622        O  0.50427168  0.50732685  0.44999109    -1.08800
O623        O  0.49263228  0.46321110  0.51854164    -1.09500
C624        C  0.54344677  0.42415733  0.52161810     1.05900
C625        C  0.46647617  0.46990324  0.40647327     1.05900
C626        C  0.45452126  0.41261557  0.49523809     1.08800
C627        C  0.57100816  0.48214466  0.43990177     1.06600
H628        H  0.44518949  0.46702205  0.46376209     0.32200
O629        O  0.45870439  0.47931820  0.47380587    -1.29700
H630        H  0.55604985  0.48279304  0.49442683     0.31900
O631        O  0.53723080  0.49100537  0.49525922    -1.31400
O632        O  0.43754150  0.57411038  0.45798548    -0.87200
O633        O  0.52737112  0.52501744  0.58513358    -0.88700
O634        O  0.40056823  0.48300441  0.49727263    -0.87300
O635        O  0.52929312  0.55567957  0.42544673    -0.87300
O636        O  0.58277591  0.53479650  0.50080869    -0.87000
O637        O  0.45365075  0.46001863  0.57010667    -0.86800
O638        O  0.43211545  0.55588402  0.55268565    -0.87200
O639        O  0.50900180  0.59994651  0.51889004    -0.86700
O640        O  0.41537221  0.50934611  0.55165910    -0.87700
O641        O  0.54237702  0.58757982  0.48524626    -0.86900
O642        O  0.40751873  0.51327063  0.45888581    -0.87300
O643        O  0.50066659  0.46835851  0.58293135    -0.87000
O644        O  0.57497953  0.50575846  0.54004776    -0.86700
O645        O  0.48158253  0.54958793  0.41474767    -0.87100
O646        O  0.45051795  0.59255510  0.50205317    -0.87400
O647        O  0.49931499  0.56369163  0.57475008    -0.88700
Zr648      Zr  0.45802344  0.52576762  0.45452414     2.83100
Zr649      Zr  0.52459267  0.49294679  0.54365763     2.83500
Zr650      Zr  0.44666700  0.48128640  0.52252290     2.84100
Zr651      Zr  0.53691238  0.53689982  0.47471627     2.83400
Zr652      Zr  0.47841461  0.55752752  0.52724518     2.84200
O653        O  0.52469304  0.53916214  0.52360920    -1.09300
O654        O  0.44589208  0.52750491  0.50296306    -1.08800
C655        C  0.43870106  0.59429254  0.47707464     1.05900
C656        C  0.51599283  0.54926697  0.59140331     1.08500
C657        C  0.39167815  0.49748832  0.47535091     1.06100
C658        C  0.50730368  0.55768986  0.40832747     1.06400
C659        C  0.59127248  0.52054166  0.52309090     1.06000
C660        C  0.47504411  0.45891065  0.58782429     1.05600
C661        C  0.41342371  0.53589911  0.55840281     1.06000
C662        C  0.53012954  0.60576695  0.50183025     1.05500
H663        H  0.47278268  0.51318781  0.56728000     0.32200
O664        O  0.47853206  0.51168656  0.54742500    -1.30400
H665        H  0.49115255  0.57397488  0.46978591     0.32200
O666        O  0.49100993  0.55528610  0.47863443    -1.31700
O667        O  0.05795888  0.95356154  0.03540804    -0.87200
O668        O  0.01001203  0.04472088  0.90807635    -0.87400
O669        O  0.03510338  0.94693080  0.94229963    -0.89000
O670        O  0.08701373  0.02120803  0.97007857    -0.87800
O671        O  0.07868090  0.05694791  0.00267966    -0.87400
O672        O  0.98745133  0.93488592  0.94623809    -0.88700
O673        O  0.04640730  0.01326504  0.91701406    -0.87200
O674        O  0.07305049  0.96200000  0.98935112    -0.86800
Zr675      Zr  0.04141775  0.99446183  0.96534070     2.84300
O676        O  0.02750275  0.04234084  0.96907320    -1.08800
O677        O  0.00984418  0.96634523  0.99216768    -1.09500
C678        C  0.07579384  0.95060018  0.01438624     1.05900
C679        C  0.03275453  0.03101898  0.90087351     1.05900
C680        C  0.01329527  0.92974829  0.93835535     1.08800
C681        C  0.09508751  0.04259202  0.98598936     1.06600
H682        H  0.99459571  0.99247158  0.92763477     0.32200
O683        O  0.99473569  0.99876366  0.94740470    -1.29700
H684        H  0.06271587  0.00734180  0.02126038     0.31900
O685        O  0.04352176  0.00891870  0.01360783    -1.31400
O686        O  0.93480079  0.07192789  0.95713497    -0.87200
O687        O  0.98360276  0.98070203  0.08406508    -0.88700
O688        O  0.94127337  0.97805042  0.92637164    -0.87300
O689        O  0.02883893  0.10201527  0.99104548    -0.87300
O690        O  0.05156381  0.04895552  0.06493636    -0.87000
O691        O  0.96419837  0.92458424  0.00001218    -0.86800
O692        O  0.90633850  0.00540438  0.02264748    -0.87200
O693        O  0.95782149  0.07720738  0.05270635    -0.86700
O694        O  0.91284058  0.97040618  0.98883382    -0.87700
O695        O  0.00530738  0.08960038  0.04855575    -0.86900
O696        O  0.95091823  0.02479971  0.91454827    -0.87300
O697        O  0.99628680  0.93065118  0.03733531    -0.87000
O698        O  0.04240731  0.00210703  0.07671262    -0.86700
O699        O  0.00052993  0.09489554  0.95098000    -0.87100
O700        O  0.91963012  0.06359165  0.00328272    -0.87400
O701        O  0.94782525  0.01283829  0.07541305    -0.88700
Zr702      Zr  0.98054592  0.04654788  0.95144453     2.83100
Zr703      Zr  0.01261857  0.97973450  0.04032044     2.83500
Zr704      Zr  0.96305061  0.97031408  0.97434944     2.84100
Zr705      Zr  0.02902773  0.05639603  0.01744216     2.83400
Zr706      Zr  0.95185737  0.03152613  0.02693760     2.84200
O707        O  0.99844279  0.02728066  0.04468135    -1.09300
O708        O  0.94931614  0.01785980  0.97852335    -1.08800
C709        C  0.91687724  0.07470710  0.97813454     1.05900
C710        C  0.96131695  0.99496661  0.09156897     1.08500
C711        C  0.94018664  0.99983037  0.90905002     1.06100
C712        C  0.01682117  0.11044654  0.96739985     1.06400
C713        C  0.05317613  0.02709156  0.08204323     1.06000
C714        C  0.97939215  0.91541704  0.02136641     1.05600
C715        C  0.89729531  0.98459775  0.00658459     1.06000
C716        C  0.97961097  0.09415755  0.05720013     1.05500
H717        H  0.95262325  0.97144962  0.03417103     0.32200
O718        O  0.96531357  0.98356936  0.02306947    -1.30400
H719        H  0.97620348  0.08024880  0.00056909     0.32200
O720        O  0.98234793  0.06064330  0.99952556    -1.31700
C721        C  0.46212294  0.43046827  0.26836919    -0.11500
C722        C  0.47730894  0.42491734  0.29388831     0.05600
C723        C  0.50149592  0.40745451  0.29295864    -0.10300
C724        C  0.50893645  0.39381668  0.26760079    -0.11900
C725        C  0.49226237  0.39725756  0.24267850    -0.01700
C726        C  0.46958291  0.41665851  0.24282718    -0.10800
C727        C  0.46778666  0.43601671  0.32191251     0.05600
H728        H  0.51406739  0.40354372  0.31218596     0.07600
H729        H  0.52678605  0.37925830  0.26784510     0.11000
H730        H  0.45636277  0.41947880  0.22385070     0.11300
H731        H  0.44357212  0.44410224  0.26857833     0.07600
C732        C  0.46242191  0.46521527  0.32583911    -0.11500
C733        C  0.45913989  0.47617560  0.35359972    -0.10800
C734        C  0.46130985  0.45800376  0.37758790    -0.01700
C735        C  0.46362821  0.42842411  0.37331094    -0.11900
C736        C  0.46678856  0.41753455  0.34571908    -0.10300
H737        H  0.46287152  0.47979372  0.30773014     0.07600
H738        H  0.45735046  0.49907376  0.35639936     0.11300
H739        H  0.46480775  0.41390847  0.39145195     0.11000
H740        H  0.47005706  0.39479567  0.34308938     0.07600
C741        C  0.47618657  0.45191194  0.66812327    -0.11500
C742        C  0.46834297  0.42303879  0.67207400     0.05600
C743        C  0.45954932  0.40684530  0.64795296    -0.10300
C744        C  0.46020814  0.41888684  0.62037054    -0.11900
C745        C  0.47003103  0.44707419  0.61657232    -0.01700
C746        C  0.47731866  0.46368575  0.64061856    -0.10800
C747        C  0.47147643  0.40949754  0.70085424     0.05600
H748        H  0.45352548  0.38450750  0.65017624     0.07600
H749        H  0.45452918  0.40581274  0.60194275     0.11000
H750        H  0.48438569  0.48569344  0.63800336     0.11300
H751        H  0.48220076  0.46523828  0.68624784     0.07600
C752        C  0.49485729  0.41699654  0.71879936    -0.11500
C753        C  0.49896567  0.40329110  0.74520247    -0.10800
C754        C  0.48010443  0.38149672  0.75390825    -0.01700
C755        C  0.45651232  0.37418385  0.73635075    -0.11900
C756        C  0.45210288  0.38818039  0.71016174    -0.10300
H757        H  0.51059910  0.43280994  0.71202034     0.07600
H758        H  0.51755424  0.40880268  0.75822300     0.11300
H759        H  0.44171129  0.35732156  0.74279305     0.11000
H760        H  0.43371377  0.38212557  0.69710765     0.07600
C761        C  0.96719364  0.80278206  0.09744919    -0.11500
C762        C  0.98359719  0.80499502  0.07237217     0.05600
C763        C  0.00336987  0.78349479  0.06610348    -0.10300
C764        C  0.00672080  0.76028268  0.08472173    -0.11900
C765        C  0.99052157  0.75841051  0.10993966    -0.01700
C766        C  0.97055546  0.77969379  0.11597772    -0.10800
C767        C  0.98149915  0.83084830  0.05421642     0.05600
H768        H  0.01631485  0.78472676  0.04690107     0.07600
H769        H  0.02239496  0.74420481  0.07975427     0.11000
H770        H  0.95747209  0.77851712  0.13508599     0.11300
H771        H  0.95225712  0.81930344  0.10316690     0.07600
C772        C  0.95485049  0.84375144  0.04904664    -0.11500
C773        C  0.95356882  0.87068769  0.03600006    -0.10800
C774        C  0.97894803  0.88491205  0.02822107    -0.01700
C775        C  0.00529986  0.87123062  0.03157167    -0.11900
C776        C  0.00659574  0.84441540  0.04441575    -0.10300
H777        H  0.93515547  0.83350830  0.05612222     0.07600
H778        H  0.93310871  0.88112454  0.03374549     0.11300
H779        H  0.02510313  0.88207697  0.02567063     0.11000
H780        H  0.02741369  0.83520516  0.04835140     0.07600
C781        C  0.94657528  0.16417879  0.08042292    -0.11500
C782        C  0.97139095  0.18009552  0.08777748     0.05600
C783        C  0.99787136  0.16643258  0.08824848    -0.10300
C784        C  0.99986835  0.13784677  0.08048563    -0.11900
C785        C  0.97549950  0.12215135  0.07139826    -0.01700
C786        C  0.94863008  0.13540829  0.07204913    -0.10800
C787        C  0.97022758  0.21045927  0.09664546     0.05600
H788        H  0.01716974  0.17794128  0.09470873     0.07600
H789        H  0.02088244  0.12831551  0.08065119     0.11000
H790        H  0.92949882  0.12400013  0.06496445     0.11300
H791        H  0.92582084  0.17423693  0.08033721     0.07600
C792        C  0.99021447  0.23059392  0.08586928    -0.11500
C793        C  0.99330042  0.25760907  0.09857057    -0.10800
C794        C  0.97674253  0.26465152  0.12246639    -0.01700
C795        C  0.95527865  0.24534551  0.13174904    -0.11900
C796        C  0.95195352  0.21853849  0.11885846    -0.10300
H797        H  0.00440415  0.22485746  0.06854558     0.07600
H798        H  0.00991683  0.27214562  0.09103135     0.11300
H799        H  0.94192402  0.25051492  0.14990763     0.11000
H800        H  0.93647713  0.20341737  0.12757368     0.07600
C801        C  0.50161884  0.59622856  0.27037528    -0.11500
C802        C  0.51761175  0.60729373  0.29374473     0.05600
C803        C  0.53278838  0.63318071  0.28996412    -0.10300
C804        C  0.53049955  0.64847690  0.26419048    -0.11900
C805        C  0.51284830  0.63836862  0.24159236    -0.01700
C806        C  0.49927163  0.61158091  0.24460254    -0.10800
C807        C  0.51614751  0.59333877  0.32260968     0.05600
H808        H  0.54530859  0.64235967  0.30740659     0.07600
H809        H  0.54198939  0.66867282  0.26229959     0.11000
H810        H  0.48563188  0.60311167  0.22765202     0.11300
H811        H  0.49014106  0.57603154  0.27233599     0.07600
C812        C  0.48985949  0.58225390  0.33239609    -0.11500
C813        C  0.48738244  0.57064174  0.35990731    -0.10800
C814        C  0.51108663  0.56981677  0.37881490    -0.01700
C815        C  0.53763716  0.58047785  0.36895328    -0.11900
C816        C  0.54010956  0.59222598  0.34117952    -0.10300
H817        H  0.47082244  0.58322743  0.31902302     0.07600
H818        H  0.46654462  0.56254900  0.36639518     0.11300
H819        H  0.55640366  0.57997529  0.38273304     0.11000
H820        H  0.56075585  0.60041669  0.33422701     0.07600
C821        C  0.49902280  0.58783064  0.72448696    -0.11500
C822        C  0.51942643  0.59804421  0.70467207     0.05600
C823        C  0.53550331  0.62278786  0.71124437    -0.10300
C824        C  0.53000534  0.63813142  0.73613294    -0.11900
C825        C  0.50845278  0.62894216  0.75504040    -0.01700
C826        C  0.49362984  0.60319700  0.74964674    -0.10800
C827        C  0.52177405  0.58508786  0.67583501     0.05600
H828        H  0.55164634  0.63082488  0.69655270     0.07600
H829        H  0.54203327  0.65771915  0.74022702     0.11000
H830        H  0.47687063  0.59587797  0.76401073     0.11300
H831        H  0.48620058  0.56890435  0.71975697     0.07600
C832        C  0.52299930  0.55531750  0.67217191    -0.11500
C833        C  0.52314977  0.54355119  0.64451012    -0.10800
C834        C  0.52125138  0.56137432  0.62023123    -0.01700
C835        C  0.52095867  0.59113721  0.62399534    -0.11900
C836        C  0.52138176  0.60286274  0.65147420    -0.10300
H837        H  0.52346412  0.54122052  0.69066039     0.07600
H838        H  0.52338431  0.52053534  0.64213139     0.11300
H839        H  0.51957064  0.60535242  0.60563704     0.11000
H840        H  0.52015379  0.62587255  0.65368397     0.07600
C841        C  0.02802635  0.17260908  0.91746960    -0.11500
C842        C  0.01986589  0.19607999  0.93427640     0.05600
C843        C  0.01330660  0.19133671  0.96344633    -0.10300
C844        C  0.01429724  0.16357770  0.97516082    -0.11900
C845        C  0.02140476  0.14022391  0.95773354    -0.01700
C846        C  0.02870607  0.14513382  0.92901048    -0.10800
C847        C  0.01670185  0.22457991  0.92018475     0.05600
H848        H  0.00695464  0.20891523  0.97698962     0.07600
H849        H  0.00807112  0.16013554  0.99730205     0.11000
H850        H  0.03389948  0.12740602  0.91511073     0.11300
H851        H  0.03256109  0.17515769  0.89481949     0.07600
C852        C  0.03562723  0.23265416  0.89810905    -0.11500
C853        C  0.02956877  0.25567135  0.88014317    -0.10800
C854        C  0.00489475  0.27176983  0.88427707    -0.01700
C855        C  0.98730840  0.26574527  0.90796911    -0.11900
C856        C  0.99303962  0.24211293  0.92573327    -0.10300
H857        H  0.05457311  0.22031156  0.89384887     0.07600
H858        H  0.04381413  0.26047407  0.86242884     0.11300
H859        H  0.96829892  0.27820700  0.91165500     0.11000
H860        H  0.97805164  0.23659215  0.94258973     0.07600
C861        C  0.03811542  0.80374104  0.87711353    -0.11500
C862        C  0.01867275  0.81283569  0.89789931     0.05600
C863        C  0.99681600  0.79377049  0.90691505    -0.10300
C864        C  0.99361638  0.76666535  0.89428223    -0.11900
C865        C  0.01180552  0.75854348  0.87199204    -0.01700
C866        C  0.03456369  0.77695057  0.86411579    -0.10800
C867        C  0.01880918  0.84321863  0.90724479     0.05600
H868        H  0.98154432  0.80034511  0.92294320     0.07600
H869        H  0.97586925  0.75287582  0.90056758     0.11000
H870        H  0.04890040  0.77103366  0.84697762     0.11300
H871        H  0.05494404  0.81806467  0.86964211     0.07600
C872        C  0.04337801  0.85675505  0.91899808    -0.11500
C873        C  0.04250656  0.88554415  0.92791088    -0.10800
C874        C  0.01714187  0.90124695  0.92475120    -0.01700
C875        C  0.99322571  0.88780630  0.91168109    -0.11900
C876        C  0.99399146  0.85924135  0.90325903    -0.10300
H877        H  0.06289256  0.84483009  0.92200680     0.07600
H878        H  0.06117072  0.89509800  0.93823856     0.11300
H879        H  0.97341864  0.89924668  0.90863712     0.11000
H880        H  0.97503294  0.84957205  0.89358049     0.07600
C881        C  0.08600178  0.37931238  0.86679079    -0.11500
C882        C  0.08077538  0.39307095  0.89292711     0.05600
C883        C  0.05355939  0.39046731  0.90541647    -0.10300
C884        C  0.03194932  0.37427729  0.89196037    -0.11900
C885        C  0.03722835  0.36022389  0.86586233    -0.01700
C886        C  0.06451083  0.36306045  0.85341591    -0.10800
C887        C  0.10368628  0.41036216  0.90679744     0.05600
H888        H  0.04908006  0.40080570  0.92567305     0.07600
H889        H  0.01110671  0.37306311  0.90195960     0.11000
H890        H  0.06962909  0.35220171  0.83364575     0.11300
H891        H  0.10674417  0.38124786  0.85660198     0.07600
C892        C  0.13164020  0.39983424  0.90885526    -0.11500
C893        C  0.15344162  0.41634301  0.92144198    -0.10800
C894        C  0.14764052  0.44362594  0.93241093    -0.01700
C895        C  0.11972696  0.45427196  0.93004198    -0.11900
C896        C  0.09793253  0.43775488  0.91738278    -0.10300
H897        H  0.13653530  0.37866756  0.90103162     0.07600
H898        H  0.17469844  0.40747379  0.92312737     0.11300
H899        H  0.11472609  0.47536602  0.93797943     0.11000
H900        H  0.07663781  0.44650173  0.91556034     0.07600
C901        C  0.05201633  0.38783178  0.09342641    -0.11500
C902        C  0.08141900  0.38621777  0.10051306     0.05600
C903        C  0.08987688  0.36457559  0.11985999    -0.10300
C904        C  0.06968828  0.34598218  0.13230552    -0.11900
C905        C  0.04048676  0.34791123  0.12528759    -0.01700
C906        C  0.03193171  0.36873815  0.10539278    -0.10800
C907        C  0.10316387  0.40664377  0.08776033     0.05600
H908        H  0.11216387  0.36165362  0.12542418     0.07600
H909        H  0.07692131  0.33008062  0.14756971     0.11000
H910        H  0.00947639  0.37119271  0.10007455     0.11300
H911        H  0.04414521  0.40432645  0.07925006     0.07600
C912        C  0.09839276  0.41993031  0.06091628    -0.11500
C913        C  0.11928678  0.43787430  0.04855651    -0.10800
C914        C  0.14587337  0.44250708  0.06225834    -0.01700
C915        C  0.15054636  0.42988504  0.08923153    -0.11900
C916        C  0.12937580  0.41263447  0.10200025    -0.10300
H917        H  0.07892837  0.41588000  0.04878716     0.07600
H918        H  0.11502933  0.44724824  0.02768289     0.11300
H919        H  0.17061343  0.43345765  0.10058330     0.11000
H920        H  0.13379713  0.40405008  0.12312424     0.07600
C921        C  0.14073262  0.63149139  0.08281552    -0.11500
C922        C  0.11178673  0.62298483  0.08483891     0.05600
C923        C  0.10362819  0.59566844  0.07465804    -0.10300
C924        C  0.12376893  0.57746207  0.06268449    -0.11900
C925        C  0.15269103  0.58588872  0.06098746    -0.01700
C926        C  0.16096400  0.61307955  0.07125655    -0.10800
C927        C  0.09017184  0.64217977  0.09780673     0.05600
H928        H  0.08170748  0.58801733  0.07635908     0.07600
H929        H  0.11671925  0.55663381  0.05504827     0.11000
H930        H  0.18303936  0.62040409  0.06984875     0.11300
H931        H  0.14777243  0.65251911  0.08983442     0.07600
C932        C  0.09738640  0.66045606  0.12089303    -0.11500
C933        C  0.07649438  0.67727994  0.13383603    -0.10800
C934        C  0.04800359  0.67619245  0.12391965    -0.01700
C935        C  0.04089694  0.65809132  0.10085712    -0.11900
C936        C  0.06170603  0.64160779  0.08777025    -0.10300
H937        H  0.11898774  0.66126382  0.12948285     0.07600
H938        H  0.08260815  0.69106822  0.15158055     0.11300
H939        H  0.01903470  0.65610946  0.09314634     0.11000
H940        H  0.05533125  0.62831388  0.06975843     0.07600
C941        C  0.08448345  0.66474383  0.89972076    -0.11500
C942        C  0.08874630  0.63613673  0.89199120     0.05600
C943        C  0.07208587  0.62385366  0.86993956    -0.10300
C944        C  0.05140418  0.63999546  0.85572327    -0.11900
C945        C  0.04664336  0.66840139  0.86388731    -0.01700
C946        C  0.06325179  0.68067112  0.88600036    -0.10800
C947        C  0.11027085  0.61888685  0.90710023     0.05600
H948        H  0.07524828  0.60183226  0.86365215     0.07600
H949        H  0.03875198  0.63018291  0.83871265     0.11000
H950        H  0.06001239  0.70265688  0.89236197     0.11300
H951        H  0.09722740  0.67452196  0.91668726     0.07600
C952        C  0.13932490  0.62679646  0.90628227    -0.11500
C953        C  0.15978040  0.60987402  0.91989222    -0.10800
C954        C  0.15142324  0.58496908  0.93492591    -0.01700
C955        C  0.12217601  0.57738744  0.93596991    -0.11900
C956        C  0.10181862  0.59409987  0.92198067    -0.10300
H957        H  0.14617855  0.64581574  0.89473268     0.07600
H958        H  0.18211059  0.61639042  0.91872019     0.11300
H959        H  0.11501045  0.55837540  0.94732738     0.11000
H960        H  0.07941263  0.58778613  0.92285854     0.07600
C961        C  0.35440418  0.40422196  0.90166018    -0.11500
C962        C  0.38049612  0.41835668  0.89562528     0.05600
C963        C  0.38506239  0.44622066  0.90603696    -0.10300
C964        C  0.36415264  0.45954706  0.92252552    -0.11900
C965        C  0.33791913  0.44559802  0.92833395    -0.01700
C966        C  0.33314363  0.41784858  0.91753966    -0.10800
C967        C  0.40295078  0.40398578  0.87865060     0.05600
H968        H  0.40501690  0.45751463  0.90175587     0.07600
H969        H  0.36834112  0.48098863  0.93040910     0.11000
H970        H  0.31316205  0.40655333  0.92173462     0.11300
H971        H  0.35036716  0.38275367  0.89375436     0.07600
C972        C  0.41271111  0.37690248  0.88682792    -0.11500
C973        C  0.43350151  0.36301331  0.87063395    -0.10800
C974        C  0.44478048  0.37569033  0.84559346    -0.01700
C975        C  0.43513409  0.40301389  0.83761118    -0.11900
C976        C  0.41460386  0.41708092  0.85408044    -0.10300
H977        H  0.40438684  0.36658215  0.90595521     0.07600
H978        H  0.44088316  0.34239110  0.87792967     0.11300
H979        H  0.44291478  0.41335981  0.81830417     0.11000
H980        H  0.40731409  0.43793114  0.84727103     0.07600
C981        C  0.39450405  0.62195556  0.84259850    -0.11500
C982        C  0.40188014  0.60578648  0.86698394     0.05600
C983        C  0.43096463  0.60221976  0.87384089    -0.10300
C984        C  0.45216823  0.61513841  0.85721829    -0.11900
C985        C  0.44483843  0.63201362  0.83355600    -0.01700
C986        C  0.41584836  0.63507384  0.82608163    -0.10800
C987        C  0.37958860  0.59366598  0.88609602     0.05600
H988        H  0.43740834  0.59055559  0.89287366     0.07600
H989        H  0.47413546  0.61345133  0.86408968     0.11000
H990        H  0.40974322  0.64813313  0.80785368     0.11300
H991        H  0.37229490  0.62475971  0.83649489     0.07600
C992        C  0.35453340  0.60891464  0.89184436    -0.11500
C993        C  0.33426976  0.59792808  0.91095775    -0.10800
C994        C  0.33897765  0.57176749  0.92497473    -0.01700
C995        C  0.36392178  0.55656445  0.91927497    -0.11900
C996        C  0.38387896  0.56724835  0.89980300    -0.10300
H997        H  0.35081700  0.62955522  0.88202740     0.07600
H998        H  0.31507914  0.61000842  0.91499922     0.11300
H999        H  0.36768629  0.53605029  0.92935103     0.11000
H1000       H  0.40262064  0.55467473  0.89535697     0.07600
C1001       C  0.40031948  0.63797575  0.14239435    -0.11500
C1002       C  0.40703754  0.61387798  0.12569095     0.05600
C1003       C  0.43538660  0.60393880  0.12682116    -0.10300
C1004       C  0.45639090  0.61805609  0.14336115    -0.11900
C1005       C  0.44964011  0.64221640  0.15978102    -0.01700
C1006       C  0.42118672  0.65169594  0.15939340    -0.10800
C1007       C  0.38473586  0.59954220  0.10701038     0.05600
H1008       H  0.44157488  0.58520977  0.11490389     0.07600
H1009       H  0.47811252  0.61037236  0.14251631     0.11000
H1010       H  0.41500711  0.67004436  0.17193152     0.11300
H1011       H  0.37907384  0.64688664  0.14192724     0.07600
C1012       C  0.35547893  0.60047553  0.11416724    -0.11500
C1013       C  0.33455400  0.58790709  0.09642598    -0.10800
C1014       C  0.34215086  0.57338883  0.07122283    -0.01700
C1015       C  0.37133882  0.57195000  0.06416821    -0.11900
C1016       C  0.39229470  0.58505917  0.08164067    -0.10300
H1017       H  0.34852291  0.61056364  0.13375733     0.07600
H1018       H  0.31233892  0.58922019  0.10280759     0.11300
H1019       H  0.37802081  0.56099275  0.04491611     0.11000
H1020       H  0.41437086  0.58419025  0.07482092     0.07600
C1021       C  0.38526140  0.44467156  0.09115291    -0.11500
C1022       C  0.37881179  0.41919167  0.10612498     0.05600
C1023       C  0.35122592  0.40697168  0.10294140    -0.10300
C1024       C  0.33069358  0.41992007  0.08535977    -0.11900
C1025       C  0.33735895  0.44520510  0.07025488    -0.01700
C1026       C  0.36493890  0.45729180  0.07320403    -0.10800
C1027       C  0.40101718  0.40520438  0.12435174     0.05600
H1028       H  0.34555869  0.38712878  0.11364191     0.07600
H1029       H  0.30965605  0.40998949  0.08340260     0.11000
H1030       H  0.37063472  0.47697986  0.06218537     0.11300
H1031       H  0.40594844  0.45519699  0.09353019     0.07600
C1032       C  0.43010228  0.40695500  0.11660907    -0.11500
C1033       C  0.45111600  0.39437189  0.13366566    -0.10800
C1034       C  0.44357395  0.37918643  0.15848686    -0.01700
C1035       C  0.41464544  0.37659704  0.16611340    -0.11900
C1036       C  0.39354200  0.38981331  0.14938501    -0.10300
H1037       H  0.43673853  0.41778328  0.09713562     0.07600
H1038       H  0.47335301  0.39617562  0.12725963     0.11300
H1039       H  0.40850964  0.36498327  0.18533271     0.11000
H1040       H  0.37148259  0.38830344  0.15632324     0.07600
C1041       C  0.59786012  0.44827243  0.08304344    -0.11500
C1042       C  0.60410115  0.42547164  0.10152378     0.05600
C1043       C  0.63201553  0.41473206  0.10241449    -0.10300
C1044       C  0.65356275  0.42695814  0.08549965    -0.11900
C1045       C  0.64753118  0.44999855  0.06708298    -0.01700
C1046       C  0.61931937  0.46028744  0.06579071    -0.10800
C1047       C  0.58140610  0.41193825  0.11904173     0.05600
H1048       H  0.63719046  0.39701709  0.11646891     0.07600
H1049       H  0.67494872  0.41836993  0.08690416     0.11000
H1050       H  0.61387480  0.47793309  0.05177470     0.11300
H1051       H  0.57632169  0.45652281  0.08172397     0.07600
C1052       C  0.56446708  0.42807909  0.13762087    -0.11500
C1053       C  0.54388180  0.41452007  0.15494786    -0.10800
C1054       C  0.53951801  0.38466408  0.15347706    -0.01700
C1055       C  0.55593868  0.36897716  0.13389565    -0.11900
C1056       C  0.57689098  0.38237045  0.11731086    -0.10300
H1057       H  0.56773066  0.45100761  0.13927894     0.07600
H1058       H  0.53204581  0.42744524  0.16985220     0.11300
H1059       H  0.55268320  0.34624075  0.13099634     0.11000
H1060       H  0.58941152  0.36961745  0.10274425     0.07600
C1061       C  0.63610202  0.59956025  0.11166139    -0.11500
C1062       C  0.60986064  0.60638704  0.09860006     0.05600
C1063       C  0.60558603  0.60029825  0.06935109    -0.10300
C1064       C  0.62697907  0.58703970  0.05357229    -0.11900
C1065       C  0.65320106  0.58013250  0.06663978    -0.01700
C1066       C  0.65771669  0.58679898  0.09574605    -0.10800
C1067       C  0.58704900  0.61987652  0.11550826     0.05600
H1068       H  0.58548512  0.60530607  0.05886384     0.07600
H1069       H  0.62305371  0.58221495  0.03111862     0.11000
H1070       H  0.67768705  0.58152594  0.10635575     0.11300
H1071       H  0.63993225  0.60430595  0.13414442     0.07600
C1072       C  0.57934947  0.60872155  0.14246357    -0.11500
C1073       C  0.55832393  0.62186925  0.15881875    -0.10800
C1074       C  0.54494470  0.64659365  0.14865734    -0.01700
C1075       C  0.55243624  0.65762159  0.12156328    -0.11900
C1076       C  0.57319327  0.64425431  0.10504029    -0.10300
H1077       H  0.58962529  0.58980950  0.15085107     0.07600
H1078       H  0.55310703  0.61315796  0.17975269     0.11300
H1079       H  0.54220876  0.67654955  0.11315003     0.11000
H1080       H  0.57887791  0.65329199  0.08436036     0.07600
C1081       C  0.60248722  0.59563098  0.92389826    -0.11500
C1082       C  0.60925155  0.61010096  0.89827245     0.05600
C1083       C  0.63792160  0.61128079  0.88925588    -0.10300
C1084       C  0.65920382  0.59743326  0.90501589    -0.11900
C1085       C  0.65221351  0.58207337  0.93007326    -0.01700
C1086       C  0.62369243  0.58169208  0.93956784    -0.10800
C1087       C  0.58619389  0.62247240  0.88027157     0.05600
H1088       H  0.64376260  0.62204588  0.86947673     0.07600
H1089       H  0.68098704  0.59814320  0.89713113     0.11000
H1090       H  0.61765583  0.57044222  0.95903061     0.11300
H1091       H  0.58068500  0.59486404  0.93171825     0.07600
C1092       C  0.56019306  0.60742990  0.87655576    -0.11500
C1093       C  0.53864113  0.61827317  0.85896437    -0.10800
C1094       C  0.54214329  0.64478840  0.84513557    -0.01700
C1095       C  0.56835792  0.65975977  0.84860472    -0.11900
C1096       C  0.59017402  0.64867513  0.86590998    -0.10300
H1097       H  0.55672776  0.58681760  0.88671314     0.07600
H1098       H  0.51937189  0.60560607  0.85632399     0.11300
H1099       H  0.57228468  0.67984554  0.83762001     0.11000
H1100       H  0.61004658  0.66072409  0.86824148     0.07600
C1101       C  0.60336897  0.45287315  0.89862636    -0.11500
C1102       C  0.60440771  0.42356285  0.89181615     0.05600
C1103       C  0.62669120  0.40727706  0.90388765    -0.10300
C1104       C  0.64782096  0.42012087  0.92132826    -0.11900
C1105       C  0.64680191  0.44941334  0.92772104    -0.01700
C1106       C  0.62416271  0.46555513  0.91657103    -0.10800
C1107       C  0.58262476  0.41002365  0.87207984     0.05600
H1108       H  0.62785916  0.38453041  0.89986779     0.07600
H1109       H  0.66492487  0.40714955  0.92992457     0.11000
H1110       H  0.62311715  0.48826392  0.92095405     0.11300
H1111       H  0.58688463  0.46625069  0.88953743     0.07600
C1112       C  0.55381644  0.41867663  0.87198623    -0.11500
C1113       C  0.53324273  0.40468486  0.85468683    -0.10800
C1114       C  0.54088099  0.38155765  0.83718255    -0.01700
C1115       C  0.56984983  0.37382280  0.83624040    -0.11900
C1116       C  0.59040898  0.38787014  0.85336637    -0.10300
H1117       H  0.54685904  0.43552729  0.88612204     0.07600
H1118       H  0.51110785  0.41109800  0.85616073     0.11300
H1119       H  0.57662072  0.35657981  0.82248301     0.11000
H1120       H  0.61246518  0.38119321  0.85201971     0.07600
C1121       C  0.85666191  0.41415883  0.10157669    -0.11500
C1122       C  0.88107687  0.40645524  0.08603516     0.05600
C1123       C  0.88398988  0.41560550  0.05746694    -0.10300
C1124       C  0.86314046  0.43275371  0.04484209    -0.11900
C1125       C  0.83873574  0.44045217  0.06037432    -0.01700
C1126       C  0.83548608  0.43078974  0.08874412    -0.10800
C1127       C  0.90387248  0.38968729  0.09996994     0.05600
H1128       H  0.90269449  0.40999797  0.04515088     0.07600
H1129       H  0.86590806  0.43973150  0.02280351     0.11000
H1130       H  0.81682764  0.43649054  0.10110013     0.11300
H1131       H  0.85395206  0.40717399  0.12361213     0.07600
C1132       C  0.91487347  0.39822373  0.12675245    -0.11500
C1133       C  0.93607838  0.38234270  0.14037510    -0.10800
C1134       C  0.94639236  0.35725756  0.12773153    -0.01700
C1135       C  0.93575081  0.34904099  0.10058032    -0.11900
C1136       C  0.91477453  0.36522082  0.08674250    -0.10300
H1137       H  0.90716452  0.41735954  0.13705627     0.07600
H1138       H  0.94435846  0.38978636  0.16084699     0.11300
H1139       H  0.94289599  0.32967103  0.09035830     0.11000
H1140       H  0.90650798  0.35823035  0.06607516     0.07600
C1141       C  0.88621379  0.42214416  0.93036672    -0.11500
C1142       C  0.87859603  0.40493433  0.90678473     0.05600
C1143       C  0.85066949  0.40633480  0.89549658    -0.10300
C1144       C  0.83043979  0.42396443  0.90809697    -0.11900
C1145       C  0.83781121  0.44080226  0.93207500    -0.01700
C1146       C  0.86604906  0.43998774  0.94284291    -0.10800
C1147       C  0.89967358  0.38561976  0.89381289     0.05600
H1148       H  0.84428221  0.39327248  0.87729060     0.07600
H1149       H  0.80897046  0.42426591  0.89914387     0.11000
H1150       H  0.87245460  0.45272620  0.96126864     0.11300
H1151       H  0.90777898  0.42182185  0.93910094     0.07600
C1152       C  0.90221279  0.38433469  0.86391060    -0.11500
C1153       C  0.92240857  0.36678845  0.85140135    -0.10800
C1154       C  0.94034122  0.34953941  0.86844582    -0.01700
C1155       C  0.93728653  0.35035536  0.89847489    -0.11900
C1156       C  0.91730172  0.36842582  0.91104480    -0.10300
H1157       H  0.88915833  0.39765470  0.85015443     0.07600
H1158       H  0.92446818  0.36784116  0.82831503     0.11300
H1159       H  0.95021324  0.33714219  0.91237620     0.11000
H1160       H  0.91540958  0.36877364  0.93422302     0.07600
C1161       C  0.93636172  0.64181572  0.90721805    -0.11500
C1162       C  0.90772660  0.64124919  0.89742837     0.05600
C1163       C  0.90051396  0.65841180  0.87365831    -0.10300
C1164       C  0.92131078  0.67527832  0.85989815    -0.11900
C1165       C  0.95007576  0.67525635  0.86921948    -0.01700
C1166       C  0.95726696  0.65851750  0.89324056    -0.10800
C1167       C  0.88557386  0.62248976  0.91145996     0.05600
H1168       H  0.87886694  0.65835675  0.86516305     0.07600
H1169       H  0.91479365  0.68815849  0.84171117     0.11000
H1170       H  0.97921637  0.65757750  0.90078119     0.11300
H1171       H  0.94271126  0.62924673  0.92568024     0.07600
C1172       C  0.89263239  0.59532178  0.92233883    -0.11500
C1173       C  0.87165894  0.57742845  0.93470849    -0.10800
C1174       C  0.84296537  0.58604810  0.93620173    -0.01700
C1175       C  0.83597707  0.61332921  0.92562469    -0.11900
C1176       C  0.85695845  0.63130714  0.91356042    -0.10300
H1177       H  0.91429566  0.58755438  0.92077016     0.07600
H1178       H  0.87784460  0.55661632  0.94265430     0.11300
H1179       H  0.81422923  0.62097620  0.92688530     0.11000
H1180       H  0.85072049  0.65226211  0.90606719     0.07600
C1181       C  0.89444711  0.58852537  0.07004012    -0.11500
C1182       C  0.88876626  0.61600965  0.08027435     0.05600
C1183       C  0.86060377  0.62595677  0.08024289    -0.10300
C1184       C  0.83825798  0.60850933  0.07019084    -0.11900
C1185       C  0.84387992  0.58103654  0.05960004    -0.01700
C1186       C  0.87219608  0.57122058  0.05957091    -0.10800
C1187       C  0.91196246  0.63367422  0.09257132     0.05600
H1188       H  0.85589284  0.64703749  0.08842267     0.07600
H1189       H  0.81668922  0.61674812  0.07019817     0.11000
H1190       H  0.87715858  0.55017655  0.05147345     0.11300
H1191       H  0.91613065  0.58056651  0.07003799     0.07600
C1192       C  0.92840756  0.62281946  0.11527288    -0.11500
C1193       C  0.94905308  0.64006091  0.12859434    -0.10800
C1194       C  0.95383486  0.66815455  0.11900044    -0.01700
C1195       C  0.93815730  0.67877058  0.09565461    -0.11900
C1196       C  0.91698253  0.66168368  0.08268671    -0.10300
H1197       H  0.92459756  0.60132216  0.12326022     0.07600
H1198       H  0.96106749  0.63164690  0.14664442     0.11300
H1199       H  0.94155353  0.70054000  0.08825947     0.11000
H1200       H  0.90438256  0.67030506  0.06515588     0.07600
C1201       C  0.07123529  0.01687401  0.76691449    -0.11500
C1202       C  0.08157003  0.03648694  0.78755455     0.05600
C1203       C  0.10697663  0.05194219  0.78194789    -0.10300
C1204       C  0.12303952  0.04604871  0.75758966    -0.11900
C1205       C  0.11385395  0.02482248  0.73816862    -0.01700
C1206       C  0.08725825  0.01117572  0.74228067    -0.10800
C1207       C  0.06830948  0.03802243  0.81638633     0.05600
H1208       H  0.11507445  0.06770831  0.79709551     0.07600
H1209       H  0.14312408  0.05749071  0.75434656     0.11000
H1210       H  0.07973546  0.99491804  0.72738137     0.11300
H1211       H  0.05174873  0.00462381  0.77069267     0.07600
C1212       C  0.03838347  0.03774438  0.81995031    -0.11500
C1213       C  0.02653159  0.03677841  0.84757250    -0.10800
C1214       C  0.04447791  0.03551785  0.87188240    -0.01700
C1215       C  0.07427560  0.03621572  0.86826786    -0.11900
C1216       C  0.08604680  0.03763332  0.84089340    -0.10300
H1217       H  0.02423407  0.03794277  0.80141993     0.07600
H1218       H  0.00345353  0.03587088  0.84990864     0.11300
H1219       H  0.08852684  0.03516897  0.88670532     0.11000
H1220       H  0.10914533  0.03723699  0.83889434     0.07600
C1221       C  0.11680692  0.05389434  0.20809101    -0.11500
C1222       C  0.09546604  0.03431138  0.19930103     0.05600
C1223       C  0.08547355  0.01372564  0.21924106    -0.10300
C1224       C  0.09805415  0.01145289  0.24658765    -0.11900
C1225       C  0.12091402  0.02962710  0.25436552    -0.01700
C1226       C  0.12938344  0.05155642  0.23530585    -0.10800
C1227       C  0.08577937  0.03344200  0.16874365     0.05600
H1228       H  0.06865832  0.99863686  0.21325055     0.07600
H1229       H  0.09122206  0.99436571  0.26084958     0.11000
H1230       H  0.14685195  0.06603702  0.24095574     0.11300
H1231       H  0.12503869  0.06990762  0.19333158     0.07600
C1232       C  0.08057350  0.05854591  0.15279670    -0.11500
C1233       C  0.07125103  0.05693024  0.12401868    -0.10800
C1234       C  0.06717647  0.03017373  0.11070037    -0.01700
C1235       C  0.07372532  0.00532862  0.12642678    -0.11900
C1236       C  0.08276780  0.00694028  0.15494386    -0.10300
H1237       H  0.08294487  0.07934124  0.16280328     0.07600
H1238       H  0.06627120  0.07646162  0.11260170     0.11300
H1239       H  0.07128162  0.98432223  0.11687190     0.11000
H1240       H  0.08752485  0.98727151  0.16621894     0.07600
C1241       C  0.20438695  0.48858038  0.23370503    -0.11500
C1242       C  0.21932414  0.51246542  0.22305833     0.05600
C1243       C  0.22585202  0.53529291  0.24162657    -0.10300
C1244       C  0.21742863  0.53412286  0.27039411    -0.11900
C1245       C  0.20191807  0.51034203  0.28110909    -0.01700
C1246       C  0.19594262  0.48739583  0.26226208    -0.10800
C1247       C  0.22736048  0.51337806  0.19243654     0.05600
H1248       H  0.23768623  0.55386686  0.23396977     0.07600
H1249       H  0.22296961  0.55187994  0.28437743     0.11000
H1250       H  0.18526257  0.46799196  0.26892655     0.11300
H1251       H  0.19888986  0.47076115  0.21977911     0.07600
C1252       C  0.23787810  0.48880230  0.17901468    -0.11500
C1253       C  0.24285309  0.48859816  0.14953000    -0.10800
C1254       C  0.23767653  0.51307183  0.13294336    -0.01700
C1255       C  0.22787572  0.53794227  0.14650922    -0.11900
C1256       C  0.22274148  0.53807350  0.17600049    -0.10300
H1257       H  0.24194708  0.46958463  0.19131834     0.07600
H1258       H  0.25055726  0.46921770  0.13970502     0.11300
H1259       H  0.22335820  0.55707478  0.13422326     0.11000
H1260       H  0.21421937  0.55713344  0.18576357     0.07600
C1261       C  0.27822800  0.47899832  0.39973378    -0.11500
C1262       C  0.27994790  0.49656758  0.42414245     0.05600
C1263       C  0.25829928  0.51665373  0.42874580    -0.10300
C1264       C  0.23599300  0.51980954  0.40878007    -0.11900
C1265       C  0.23525728  0.50331726  0.38365749    -0.01700
C1266       C  0.25620444  0.48245565  0.37962701    -0.10800
C1267       C  0.30605693  0.49629582  0.44252216     0.05600
H1268       H  0.25905785  0.53040144  0.44744329     0.07600
H1269       H  0.22005756  0.53593690  0.41239884     0.11000
H1270       H  0.25578470  0.46909033  0.36064090     0.11300
H1271       H  0.29471692  0.46355027  0.39544116     0.07600
C1272       C  0.31906864  0.47044649  0.45053297    -0.11500
C1273       C  0.34629063  0.47063414  0.46350061    -0.10800
C1274       C  0.36097966  0.49664705  0.46801456    -0.01700
C1275       C  0.34728063  0.52240864  0.46163089    -0.11900
C1276       C  0.32001844  0.52225916  0.44922700    -0.10300
H1277       H  0.30865331  0.45013785  0.44575889     0.07600
H1278       H  0.35659084  0.45053420  0.46820758     0.11300
H1279       H  0.35828431  0.54270463  0.46506860     0.11000
H1280       H  0.31070741  0.54247564  0.44310996     0.07600
C1281       C  0.78617680  0.53673155  0.23766675    -0.11500
C1282       C  0.77385428  0.51265336  0.22404024     0.05600
C1283       C  0.76759798  0.48831484  0.24066111    -0.10300
C1284       C  0.77399541  0.48778634  0.26996846    -0.11900
C1285       C  0.78664227  0.51163108  0.28379769    -0.01700
C1286       C  0.79248538  0.53628856  0.26717861    -0.10800
C1287       C  0.76781764  0.51252429  0.19256856     0.05600
H1288       H  0.75748640  0.46964433  0.23102424     0.07600
H1289       H  0.76868272  0.46865658  0.28211218     0.11000
H1290       H  0.80173737  0.55540911  0.27650522     0.11300
H1291       H  0.79133616  0.55581571  0.22540965     0.07600
C1292       C  0.75631013  0.53657867  0.17877792    -0.11500
C1293       C  0.75057755  0.53618152  0.14918826    -0.10800
C1294       C  0.75616086  0.51169997  0.13268364    -0.01700
C1295       C  0.76749003  0.48759651  0.14655198    -0.11900
C1296       C  0.77333329  0.48804866  0.17607517    -0.10300
H1297       H  0.75145149  0.55561371  0.19092276     0.07600
H1298       H  0.74172115  0.55507538  0.13922566     0.11300
H1299       H  0.77245443  0.46854531  0.13447179     0.11000
H1300       H  0.78263029  0.46932200  0.18594160     0.07600
C1301       C  0.70238730  0.50367911  0.40981677    -0.11500
C1302       C  0.68590437  0.48017386  0.39991053     0.05600
C1303       C  0.69756706  0.46161639  0.37967378    -0.10300
C1304       C  0.72474405  0.46714319  0.36854189    -0.11900
C1305       C  0.74054629  0.49142814  0.37726211    -0.01700
C1306       C  0.72961653  0.50931209  0.39849620    -0.10800
C1307       C  0.65618299  0.47576946  0.40986738     0.05600
H1308       H  0.68536764  0.44323726  0.37202982     0.07600
H1309       H  0.73298008  0.45318332  0.35207728     0.11000
H1310       H  0.74137076  0.52838844  0.40505517     0.11300
H1311       H  0.69364380  0.51835350  0.42534056     0.07600
C1312       C  0.65034453  0.47580109  0.43932802    -0.11500
C1313       C  0.62211362  0.47488146  0.44887111    -0.10800
C1314       C  0.59920634  0.47413134  0.42916505    -0.01700
C1315       C  0.60488815  0.47294086  0.39967013    -0.11900
C1316       C  0.63331940  0.47343036  0.39005490    -0.10300
H1317       H  0.66762522  0.47751158  0.45491731     0.07600
H1318       H  0.61806062  0.47658643  0.47170758     0.11300
H1319       H  0.58747860  0.47335104  0.38417895     0.11000
H1320       H  0.63743252  0.47366569  0.36717318     0.07600
C1321       C  0.90604339  0.00941047  0.77057013    -0.11500
C1322       C  0.89636637  0.99016302  0.79197467     0.05600
C1323       C  0.87362473  0.97130429  0.78518180    -0.10300
C1324       C  0.85962910  0.97305873  0.75859412    -0.11900
C1325       C  0.86808310  0.99357551  0.73805295    -0.01700
C1326       C  0.89205111  0.01106161  0.74385123    -0.10800
C1327       C  0.90788404  0.99175881  0.82199287     0.05600
H1328       H  0.86549479  0.95628625  0.80098983     0.07600
H1329       H  0.84139480  0.95902542  0.75446182     0.11000
H1330       H  0.89898690  0.02701316  0.72837482     0.11300
H1331       H  0.92391629  0.02385345  0.77479795     0.07600
C1332       C  0.91069959  0.96721774  0.83945940    -0.11500
C1333       C  0.92029994  0.96955727  0.86810525    -0.10800
C1334       C  0.92719600  0.99649961  0.87988130    -0.01700
C1335       C  0.92401396  0.02088466  0.86237503    -0.11900
C1336       C  0.91456836  0.01854883  0.83401165    -0.10300
H1337       H  0.90584934  0.94617918  0.83088521     0.07600
H1338       H  0.92285946  0.95030209  0.88078030     0.11300
H1339       H  0.92901823  0.04208098  0.87048891     0.11000
H1340       H  0.91196940  0.03798854  0.82165145     0.07600
C1341       C  0.92126470  0.98630304  0.22994564    -0.11500
C1342       C  0.91673782  0.00393941  0.20588732     0.05600
C1343       C  0.89776177  0.02686416  0.20822815    -0.10300
C1344       C  0.88127128  0.03020617  0.23277330    -0.11900
C1345       C  0.88360945  0.01091160  0.25569964    -0.01700
C1346       C  0.90474313  0.98981905  0.25479666    -0.10800
C1347       C  0.92855835  0.99702757  0.17723001     0.05600
H1348       H  0.89448134  0.04129659  0.19030524     0.07600
H1349       H  0.86552934  0.04699509  0.23324665     0.11000
H1350       H  0.90690708  0.97469807  0.27224102     0.11300
H1351       H  0.93594633  0.96863008  0.22877766     0.07600
C1352       C  0.95777466  0.99148752  0.17295977    -0.11500
C1353       C  0.96852423  0.98876683  0.14493351    -0.10800
C1354       C  0.95013133  0.99160247  0.12103673    -0.01700
C1355       C  0.92070960  0.99499614  0.12562179    -0.11900
C1356       C  0.91006811  0.99748981  0.15331993    -0.10300
H1357       H  0.97242106  0.99076051  0.19107987     0.07600
H1358       H  0.99133755  0.98621577  0.14190480     0.11300
H1359       H  0.90597838  0.99679034  0.10763478     0.11000
H1360       H  0.88731722  0.00079201  0.15602996     0.07600
C1361       C  0.22248816  0.53672267  0.75569110    -0.11500
C1362       C  0.21130799  0.51617319  0.77472765     0.05600
C1363       C  0.19128081  0.49593636  0.76437615    -0.10300
C1364       C  0.18383832  0.49519580  0.73528791    -0.11900
C1365       C  0.19647664  0.51466462  0.71572853    -0.01700
C1366       C  0.21499537  0.53608063  0.72666040    -0.10800
C1367       C  0.22087359  0.51550872  0.80515072     0.05600
H1368       H  0.18146005  0.48048946  0.77878665     0.07600
H1369       H  0.16842516  0.47908735  0.72877091     0.11000
H1370       H  0.22460623  0.55176605  0.71236538     0.11300
H1371       H  0.23788517  0.55270258  0.76298287     0.07600
C1372       C  0.22545776  0.48927309  0.81912153    -0.11500
C1373       C  0.23335212  0.48853199  0.84809557    -0.10800
C1374       C  0.23684198  0.51402872  0.86375550    -0.01700
C1375       C  0.23351647  0.54030920  0.84938734    -0.11900
C1376       C  0.22552547  0.54102604  0.82045200    -0.10300
H1377       H  0.22276802  0.46925721  0.80768207     0.07600
H1378       H  0.23595773  0.46792863  0.85837814     0.11300
H1379       H  0.23608548  0.56040586  0.86070877     0.11000
H1380       H  0.22208446  0.56157779  0.81033612     0.07600
C1381       C  0.27622359  0.54425521  0.59268504    -0.11500
C1382       C  0.29947040  0.52640396  0.59895101     0.05600
C1383       C  0.29424791  0.50086216  0.61420418    -0.10300
C1384       C  0.26695074  0.49449686  0.62489969    -0.11900
C1385       C  0.24420814  0.51334837  0.62029762    -0.01700
C1386       C  0.24880327  0.53774247  0.60325126    -0.10800
C1387       C  0.32919480  0.53455108  0.59037287     0.05600
H1388       H  0.31149997  0.48621468  0.61862619     0.07600
H1389       H  0.26387927  0.47554349  0.63802356     0.11000
H1390       H  0.23169642  0.55281131  0.59987249     0.11300
H1391       H  0.27954548  0.56402166  0.58092949     0.07600
C1392       C  0.33482577  0.54571996  0.56288341    -0.11500
C1393       C  0.36308111  0.54991680  0.55369790    -0.10800
C1394       C  0.38615890  0.54312095  0.57182070    -0.01700
C1395       C  0.38064378  0.53392921  0.59994810    -0.11900
C1396       C  0.35240305  0.52989465  0.60923281    -0.10300
H1397       H  0.31748325  0.54938961  0.54781798     0.07600
H1398       H  0.36691700  0.55599909  0.53154957     0.11300
H1399       H  0.39814987  0.52783171  0.61397338     0.11000
H1400       H  0.34873282  0.52189050  0.63076945     0.07600
C1401       C  0.79004094  0.49065648  0.76175828    -0.11500
C1402       C  0.77538013  0.51442148  0.77232142     0.05600
C1403       C  0.76852978  0.53658605  0.75317966    -0.10300
C1404       C  0.77517504  0.53439732  0.72400998    -0.11900
C1405       C  0.78902421  0.51014398  0.71313971    -0.01700
C1406       C  0.79655201  0.48837572  0.73264749    -0.10800
C1407       C  0.76640026  0.51522953  0.80293885     0.05600
H1408       H  0.75720939  0.55522070  0.76050208     0.07600
H1409       H  0.76921530  0.55165091  0.70970238     0.11000
H1410       H  0.80735475  0.46932305  0.72608791     0.11300
H1411       H  0.79644299  0.47356432  0.77604928     0.07600
C1412       C  0.75759492  0.48987733  0.81684772    -0.11500
C1413       C  0.75084995  0.48982249  0.84600762    -0.10800
C1414       C  0.75247110  0.51520197  0.86204877    -0.01700
C1415       C  0.75969129  0.54091719  0.84780797    -0.11900
C1416       C  0.76671284  0.54091643  0.81860943    -0.10300
H1417       H  0.75608182  0.46988084  0.80521477     0.07600
H1418       H  0.74491122  0.46971299  0.85607824     0.11300
H1419       H  0.76095522  0.56094643  0.85942661     0.11000
H1420       H  0.77331207  0.56086181  0.80861622     0.07600
C1421       C  0.66790747  0.54161139  0.54186169    -0.11500
C1422       C  0.67774839  0.51547966  0.55316014     0.05600
C1423       C  0.66075334  0.49073608  0.54917417    -0.10300
C1424       C  0.63317700  0.49260363  0.53796950    -0.11900
C1425       C  0.62216106  0.51908467  0.52954729    -0.01700
C1426       C  0.64021475  0.54336928  0.52992366    -0.10800
C1427       C  0.70323666  0.51421218  0.57257303     0.05600
H1428       H  0.66812103  0.47004760  0.55636055     0.07600
H1429       H  0.61992443  0.47338378  0.53696269     0.11000
H1430       H  0.63224674  0.56392609  0.52302600     0.11300
H1431       H  0.68063953  0.56101730  0.54419142     0.07600
C1432       C  0.72814593  0.53087208  0.56791176    -0.11500
C1433       C  0.75126565  0.52971621  0.58737704    -0.10800
C1434       C  0.74972633  0.51217921  0.61193132    -0.01700
C1435       C  0.72482749  0.49572005  0.61653044    -0.11900
C1436       C  0.70195224  0.49676910  0.59723661    -0.10300
H1437       H  0.72978945  0.54467036  0.54926473     0.07600
H1438       H  0.77001336  0.54298150  0.58355866     0.11300
H1439       H  0.72299316  0.48192119  0.63516772     0.11000
H1440       H  0.68287477  0.48427852  0.60212494     0.07600
C1441       C  0.96841590  0.29819954  0.32524513    -0.11500
C1442       C  0.99124813  0.29150690  0.30702343     0.05600
C1443       C  0.01444272  0.27607745  0.31839882    -0.10300
C1444       C  0.01507965  0.26811017  0.34733098    -0.11900
C1445       C  0.99221328  0.27478250  0.36540447    -0.01700
C1446       C  0.96880759  0.28973928  0.35403261    -0.10800
C1447       C  0.99099782  0.30038084  0.27628200     0.05600
H1448       H  0.03209324  0.26987737  0.30491264     0.07600
H1449       H  0.03337991  0.25658419  0.35551108     0.11000
H1450       H  0.95110964  0.29566650  0.36762463     0.11300
H1451       H  0.95045925  0.31045784  0.31745982     0.07600
C1452       C  0.96537504  0.30068927  0.26020884    -0.11500
C1453       C  0.96577619  0.30702428  0.23081956    -0.10800
C1454       C  0.99172067  0.31350485  0.21672631    -0.01700
C1455       C  0.01721528  0.31354583  0.23308561    -0.11900
C1456       C  0.01676192  0.30749068  0.26240905    -0.10300
H1457       H  0.94511562  0.29493948  0.27000917     0.07600
H1458       H  0.94580955  0.30606251  0.21884078     0.11300
H1459       H  0.03793597  0.31707551  0.22352641     0.11000
H1460       H  0.03686837  0.30799166  0.27412944     0.07600
C1461       C  0.02227278  0.28697723  0.67735286    -0.11500
C1462       C  0.99717083  0.28250539  0.69334559     0.05600
C1463       C  0.97277680  0.27090056  0.67956607    -0.10300
C1464       C  0.97303070  0.26510972  0.65019323    -0.11900
C1465       C  0.99776510  0.27059234  0.63393987    -0.01700
C1466       C  0.02258140  0.28107070  0.64793290    -0.10800
C1467       C  0.99584691  0.29109132  0.72395891     0.05600
H1468       H  0.95332081  0.26659117  0.69147344     0.07600
H1469       H  0.95368813  0.25667216  0.64016370     0.11000
H1470       H  0.04199162  0.28558959  0.63601346     0.11300
H1471       H  0.04134708  0.29604706  0.68733844     0.07600
C1472       C  0.01890200  0.28638293  0.74280658    -0.11500
C1473       C  0.01703939  0.29410272  0.77173403    -0.10800
C1474       C  0.99208161  0.30661239  0.78264284    -0.01700
C1475       C  0.96949464  0.31229970  0.76324608    -0.11900
C1476       C  0.97136288  0.30451443  0.73442673    -0.10300
H1477       H  0.03815717  0.27620417  0.73534143     0.07600
H1478       H  0.03505713  0.28993200  0.78584160     0.11300
H1479       H  0.95023555  0.32289662  0.76955074     0.11000
H1480       H  0.95363044  0.30934014  0.72017534     0.07600
C1481       C  0.89169657  0.36957134  0.39453564    -0.11500
C1482       C  0.88500311  0.39495640  0.40903770     0.05600
C1483       C  0.89509242  0.39882321  0.43732094    -0.10300
C1484       C  0.91180587  0.37798564  0.45063753    -0.11900
C1485       C  0.91847573  0.35264040  0.43612977    -0.01700
C1486       C  0.90798668  0.34847284  0.40807390    -0.10800
C1487       C  0.86707025  0.41708274  0.39499073     0.05600
H1488       H  0.89040783  0.41819027  0.44900662     0.07600
H1489       H  0.91944304  0.38163819  0.47235778     0.11000
H1490       H  0.91286369  0.32914018  0.39641024     0.11300
H1491       H  0.88396451  0.36585704  0.37285599     0.07600
C1492       C  0.87155223  0.42507222  0.36623254    -0.11500
C1493       C  0.85443380  0.44579961  0.35312299    -0.10800
C1494       C  0.83204586  0.45877658  0.36830399    -0.01700
C1495       C  0.82759479  0.45046517  0.39706854    -0.11900
C1496       C  0.84502108  0.43016316  0.41026933    -0.10300
H1497       H  0.88863995  0.41561536  0.35399980     0.07600
H1498       H  0.85917927  0.45182420  0.33120918     0.11300
H1499       H  0.81028024  0.45900225  0.40952808     0.11000
H1500       H  0.84074163  0.42413621  0.43232908     0.07600
C1501       C  0.89292840  0.37036306  0.60274231    -0.11500
C1502       C  0.88600816  0.39558281  0.58766043     0.05600
C1503       C  0.89699179  0.39926779  0.55974937    -0.10300
C1504       C  0.91483627  0.37886009  0.54765708    -0.11900
C1505       C  0.92157810  0.35377887  0.56274674    -0.01700
C1506       C  0.91019997  0.34957809  0.59028475    -0.10800
C1507       C  0.86771536  0.41801368  0.60094249     0.05600
H1508       H  0.89161164  0.41778041  0.54693820     0.07600
H1509       H  0.92291691  0.38246332  0.52617515     0.11000
H1510       H  0.91512270  0.33045891  0.60242664     0.11300
H1511       H  0.88548656  0.36676141  0.62442775     0.07600
C1512       C  0.84663270  0.41066612  0.62130930    -0.11500
C1513       C  0.82992068  0.43171958  0.63400730    -0.10800
C1514       C  0.83343596  0.46064734  0.62635507    -0.01700
C1515       C  0.85410565  0.46809368  0.60582830    -0.11900
C1516       C  0.87122093  0.44712558  0.59349851    -0.10300
H1517       H  0.84266603  0.38859937  0.62729649     0.07600
H1518       H  0.81396789  0.42529999  0.64963555     0.11300
H1519       H  0.85772235  0.49028458  0.59998724     0.11000
H1520       H  0.88764304  0.45397953  0.57859468     0.07600
C1521       C  0.08370739  0.40809392  0.56148520    -0.11500
C1522       C  0.09831596  0.40265039  0.58728882     0.05600
C1523       C  0.09511916  0.37585853  0.60060646    -0.10300
C1524       C  0.07789486  0.35460056  0.58803787    -0.11900
C1525       C  0.06313732  0.35996338  0.56219228    -0.01700
C1526       C  0.06602115  0.38701302  0.54915927    -0.10800
C1527       C  0.11639144  0.42506242  0.60073742     0.05600
H1528       H  0.10626339  0.37130332  0.62055429     0.07600
H1529       H  0.07606420  0.33398391  0.59858675     0.11000
H1530       H  0.05510454  0.39167156  0.52912007     0.11300
H1531       H  0.08578766  0.42875268  0.55106262     0.07600
C1532       C  0.13893353  0.43818480  0.58555275    -0.11500
C1533       C  0.15648812  0.45885843  0.59885706    -0.10800
C1534       C  0.15145752  0.46698741  0.62740455    -0.01700
C1535       C  0.12810301  0.45438920  0.64207284    -0.11900
C1536       C  0.11108615  0.43336308  0.62903555    -0.10300
H1537       H  0.14332547  0.43193086  0.56364211     0.07600
H1538       H  0.17430370  0.46791138  0.58698714     0.11300
H1539       H  0.12268030  0.46081039  0.66365659     0.11000
H1540       H  0.09348468  0.42380649  0.64092318     0.07600
C1541       C  0.08940046  0.37285660  0.39121464    -0.11500
C1542       C  0.09397643  0.39973108  0.40392279     0.05600
C1543       C  0.08034778  0.40612197  0.42987354    -0.10300
C1544       C  0.06280442  0.38573231  0.44323970    -0.11900
C1545       C  0.05896476  0.35849476  0.43103171    -0.01700
C1546       C  0.07218998  0.35233031  0.40475726    -0.10800
C1547       C  0.11312387  0.42102304  0.39027546     0.05600
H1548       H  0.08336094  0.42688334  0.43982410     0.07600
H1549       H  0.05300207  0.39096353  0.46356037     0.11000
H1550       H  0.06946602  0.33152023  0.39482850     0.11300
H1551       H  0.09974926  0.36749863  0.37120555     0.07600
C1552       C  0.13425635  0.43537735  0.40653952    -0.11500
C1553       C  0.15206071  0.45591976  0.39373290    -0.10800
C1554       C  0.14868649  0.46286158  0.36454015    -0.01700
C1555       C  0.12753006  0.44822494  0.34830493    -0.11900
C1556       C  0.11017156  0.42730536  0.36098466    -0.10300
H1557       H  0.13718919  0.43043518  0.42910739     0.07600
H1558       H  0.16862197  0.46602941  0.40670897     0.11300
H1559       H  0.12376250  0.45327240  0.32592443     0.11000
H1560       H  0.09386790  0.41659148  0.34809256     0.07600
C1561       C  0.08938652  0.09126426  0.64110158    -0.11500
C1562       C  0.10449993  0.10428889  0.61853527     0.05600
C1563       C  0.13238761  0.09540232  0.61249585    -0.10300
C1564       C  0.14464232  0.07320423  0.62829333    -0.11900
C1565       C  0.12936747  0.05985101  0.65073195    -0.01700
C1566       C  0.10178409  0.06951603  0.65722345    -0.10800
C1567       C  0.09066286  0.12652711  0.60094594     0.05600
H1568       H  0.14434581  0.10507375  0.59503314     0.07600
H1569       H  0.16580292  0.06617411  0.62246545     0.11000
H1570       H  0.08972965  0.06066050  0.67498497     0.11300
H1571       H  0.06800671  0.09814153  0.64643548     0.07600
C1572       C  0.06287631  0.12173070  0.59017494    -0.11500
C1573       C  0.04928049  0.14271516  0.57401782    -0.10800
C1574       C  0.06305184  0.16909703  0.56862280    -0.01700
C1575       C  0.09087863  0.17396516  0.57940080    -0.11900
C1576       C  0.10472267  0.15267608  0.59520484    -0.10300
H1577       H  0.05173640  0.10162519  0.59414480     0.07600
H1578       H  0.02776710  0.13844526  0.56608653     0.11300
H1579       H  0.10198131  0.19406954  0.57536126     0.11000
H1580       H  0.12615559  0.15680000  0.60340893     0.07600
C1581       C  0.89387374  0.14479466  0.59935970    -0.11500
C1582       C  0.90767075  0.11865789  0.60468013     0.05600
C1583       C  0.93515214  0.11491592  0.59292077    -0.10300
C1584       C  0.94817629  0.13650417  0.57626394    -0.11900
C1585       C  0.93433231  0.16261841  0.57135710    -0.01700
C1586       C  0.90713855  0.16652365  0.58328629    -0.10800
C1587       C  0.89322276  0.09561575  0.62220103     0.05600
H1588       H  0.94685291  0.09546721  0.59681966     0.07600
H1589       H  0.96931299  0.13294112  0.56760778     0.11000
H1590       H  0.89577039  0.18624949  0.57965921     0.11300
H1591       H  0.87246630  0.14846712  0.60716210     0.07600
C1592       C  0.87367991  0.10270554  0.64397150    -0.11500
C1593       C  0.85893062  0.08142789  0.65935795    -0.10800
C1594       C  0.86387246  0.05242051  0.65408660    -0.01700
C1595       C  0.88384154  0.04505976  0.63299395    -0.11900
C1596       C  0.89816051  0.06636293  0.61705724    -0.10300
H1597       H  0.86974436  0.12478416  0.64936359     0.07600
H1598       H  0.84380121  0.08766121  0.67566023     0.11300
H1599       H  0.88770634  0.02278663  0.62819842     0.11000
H1600       H  0.91253954  0.05978974  0.60024996     0.07600
C1601       C  0.86379279  0.09153457  0.38036330    -0.11500
C1602       C  0.89266670  0.09909220  0.37592911     0.05600
C1603       C  0.90784519  0.08545482  0.35403085    -0.10300
C1604       C  0.89439802  0.06466250  0.33690717    -0.11900
C1605       C  0.86557874  0.05694177  0.34148379    -0.01700
C1606       C  0.85041240  0.07064083  0.36339049    -0.10800
C1607       C  0.90674635  0.12128781  0.39402822     0.05600
H1608       H  0.92998296  0.09123524  0.34982496     0.07600
H1609       H  0.90648478  0.05506430  0.31976458     0.11000
H1610       H  0.82832182  0.06489345  0.36780953     0.11300
H1611       H  0.85167321  0.10144580  0.39732630     0.07600
C1612       C  0.89216788  0.14642155  0.40084781    -0.11500
C1613       C  0.90523409  0.16740498  0.41791966    -0.10800
C1614       C  0.93299604  0.16352949  0.42885743    -0.01700
C1615       C  0.94761728  0.13836205  0.42222309    -0.11900
C1616       C  0.93467203  0.11749939  0.40475930    -0.10300
H1617       H  0.87076692  0.15004586  0.39262000     0.07600
H1618       H  0.89353239  0.18663093  0.42274635     0.11300
H1619       H  0.96918628  0.13503998  0.43016415     0.11000
H1620       H  0.94632246  0.09824280  0.39996458     0.07600
C1621       C  0.06159485  0.12007849  0.41138051    -0.11500
C1622       C  0.08845492  0.12526058  0.39894700     0.05600
C1623       C  0.10161161  0.15232771  0.40206169    -0.10300
C1624       C  0.08797641  0.17392524  0.41731349    -0.11900
C1625       C  0.06125229  0.16853295  0.43011372    -0.01700
C1626       C  0.04821713  0.14142955  0.42697385    -0.10800
C1627       C  0.10237398  0.10256343  0.38228626     0.05600
H1628       H  0.12222286  0.15684597  0.39234888     0.07600
H1629       H  0.09845445  0.19465492  0.41941494     0.11000
H1630       H  0.02747559  0.13679735  0.43635602     0.11300
H1631       H  0.05108939  0.09936635  0.40927698     0.07600
C1632       C  0.13119067  0.09603161  0.38715119    -0.11500
C1633       C  0.14445789  0.07509107  0.37076954    -0.10800
C1634       C  0.12943356  0.06080642  0.34847540    -0.01700
C1635       C  0.10029366  0.06707267  0.34426132    -0.11900
C1636       C  0.08687764  0.08746082  0.36118248    -0.10300
H1637       H  0.14337904  0.10699810  0.40379775     0.07600
H1638       H  0.16651603  0.07029803  0.37576629     0.11300
H1639       H  0.08778735  0.05717676  0.32731390     0.11000
H1640       H  0.06457203  0.09219238  0.35706009     0.07600
C1641       C  0.97218052  0.71060408  0.25573645    -0.11500
C1642       C  0.99278690  0.72923090  0.26769166     0.05600
C1643       C  0.01374157  0.74152286  0.24981604    -0.10300
C1644       C  0.01435551  0.73486658  0.22068756    -0.11900
C1645       C  0.99383453  0.71608160  0.20857325    -0.01700
C1646       C  0.97249140  0.70427875  0.22655846    -0.10800
C1647       C  0.99243717  0.73578891  0.29872634     0.05600
H1648       H  0.02953552  0.75652857  0.25826077     0.07600
H1649       H  0.03077664  0.74466472  0.20740160     0.11000
H1650       H  0.95587478  0.69001044  0.21890124     0.11300
H1651       H  0.95594251  0.70052149  0.26901597     0.07600
C1652       C  0.96634765  0.73882202  0.31325143    -0.11500
C1653       C  0.96608461  0.74510494  0.34252666    -0.10800
C1654       C  0.99190774  0.74864653  0.35783971    -0.01700
C1655       C  0.01800494  0.74573566  0.34319907    -0.11900
C1656       C  0.01824834  0.73915559  0.31404808    -0.10300
H1657       H  0.94608451  0.73667802  0.30194946     0.07600
H1658       H  0.94563874  0.74702205  0.35316016     0.11300
H1659       H  0.03835684  0.74792119  0.35434846     0.11000
H1660       H  0.03868396  0.73628712  0.30362443     0.07600
C1661       C  0.02416240  0.73405146  0.67063082    -0.11500
C1662       C  0.99858749  0.73352580  0.68651709     0.05600
C1663       C  0.97286974  0.74053287  0.67237595    -0.10300
C1664       C  0.97265495  0.74722997  0.64313264    -0.11900
C1665       C  0.99822698  0.74764998  0.62731044    -0.01700
C1666       C  0.02400422  0.74117067  0.64146549    -0.10800
C1667       C  0.99867464  0.72542301  0.71753856     0.05600
H1668       H  0.95279877  0.74104831  0.68385936     0.07600
H1669       H  0.95235008  0.75200909  0.63293660     0.11000
H1670       H  0.04404126  0.74087273  0.62986992     0.11300
H1671       H  0.04432742  0.72823655  0.68045489     0.07600
C1672       C  0.97490622  0.71129459  0.72981852    -0.11500
C1673       C  0.97454456  0.70442191  0.75903888    -0.10800
C1674       C  0.99821320  0.71110946  0.77688122    -0.01700
C1675       C  0.02239612  0.72424822  0.76426147    -0.11900
C1676       C  0.02250425  0.73165525  0.73519412    -0.10300
H1677       H  0.95643899  0.70533565  0.71685995     0.07600
H1678       H  0.95540120  0.69417305  0.76707031     0.11300
H1679       H  0.04099237  0.72973363  0.77729197     0.11000
H1680       H  0.04109039  0.74290738  0.72683421     0.07600
C1681       C  0.11345857  0.59275255  0.36124549    -0.11500
C1682       C  0.11858248  0.60141609  0.38965682     0.05600
C1683       C  0.14136458  0.58941563  0.40512760    -0.10300
C1684       C  0.15868719  0.56890610  0.39235274    -0.11900
C1685       C  0.15344201  0.55998001  0.36396604    -0.01700
C1686       C  0.13065742  0.57218197  0.34853638    -0.10800
C1687       C  0.10017335  0.62303836  0.40296993     0.05600
H1688       H  0.14586197  0.59609929  0.42699168     0.07600
H1689       H  0.17623570  0.56017352  0.40465207     0.11000
H1690       H  0.12568847  0.56536444  0.32683147     0.11300
H1691       H  0.09581235  0.60158942  0.34906038     0.07600
C1692       C  0.09609294  0.64951798  0.38940487    -0.11500
C1693       C  0.07890906  0.67017589  0.40200941    -0.10800
C1694       C  0.06507165  0.66446054  0.42814680    -0.01700
C1695       C  0.06874999  0.63767044  0.44142141    -0.11900
C1696       C  0.08637395  0.61724330  0.42906758    -0.10300
H1697       H  0.10658415  0.65434131  0.36923978     0.07600
H1698       H  0.07635456  0.69055345  0.39125238     0.11300
H1699       H  0.05845034  0.63268986  0.46165701     0.11000
H1700       H  0.08905923  0.59682899  0.43973038     0.07600
C1701       C  0.09260593  0.61929569  0.55674389    -0.11500
C1702       C  0.10497999  0.62474430  0.58395186     0.05600
C1703       C  0.09901690  0.65099068  0.59735452    -0.10300
C1704       C  0.08168248  0.67123892  0.58380323    -0.11900
C1705       C  0.06931244  0.66557377  0.55676763    -0.01700
C1706       C  0.07475212  0.63927359  0.54352256    -0.10800
C1707       C  0.12372833  0.60310793  0.59829624     0.05600
H1708       H  0.10739847  0.65587564  0.61853682     0.07600
H1709       H  0.07761252  0.69121351  0.59469566     0.11000
H1710       H  0.06575841  0.63441305  0.52254610     0.11300
H1711       H  0.09703187  0.59977097  0.54527344     0.07600
C1712       C  0.11931280  0.57360771  0.59344984    -0.11500
C1713       C  0.13663736  0.55333933  0.60688097    -0.10800
C1714       C  0.15837589  0.56191280  0.62605305    -0.01700
C1715       C  0.16290670  0.59119296  0.63118644    -0.11900
C1716       C  0.14604713  0.61158155  0.61719098    -0.10300
H1717       H  0.10201936  0.56596234  0.57977565     0.07600
H1718       H  0.13238404  0.53082511  0.60302326     0.11300
H1719       H  0.17965152  0.59828079  0.64586437     0.11000
H1720       H  0.15069675  0.63397507  0.62112775     0.07600
C1721       C  0.90898403  0.61273648  0.56375045    -0.11500
C1722       C  0.89578420  0.61911385  0.58995154     0.05600
C1723       C  0.90063899  0.64604057  0.60248731    -0.10300
C1724       C  0.91738748  0.66670264  0.58842533    -0.11900
C1725       C  0.93000496  0.66062578  0.56180741    -0.01700
C1726       C  0.92615911  0.63320977  0.54992022    -0.10800
C1727       C  0.87614401  0.59808899  0.60361123     0.05600
H1728       H  0.89067787  0.65140492  0.62269146     0.07600
H1729       H  0.92020934  0.68755510  0.59823418     0.11000
H1730       H  0.93561298  0.62789808  0.52945285     0.11300
H1731       H  0.90576534  0.59196816  0.55387021     0.07600
C1732       C  0.85394753  0.58519029  0.58754679    -0.11500
C1733       C  0.83538938  0.56520528  0.60025840    -0.10800
C1734       C  0.83875529  0.55749387  0.62926945    -0.01700
C1735       C  0.86095877  0.57068428  0.64535726    -0.11900
C1736       C  0.87930573  0.59090681  0.63270667    -0.10300
H1737       H  0.85082252  0.59079489  0.56516038     0.07600
H1738       H  0.81840223  0.55598810  0.58726150     0.11300
H1739       H  0.86473095  0.56495886  0.66757753     0.11000
H1740       H  0.89638471  0.60048646  0.64547736     0.07600
C1741       C  0.87982042  0.64346897  0.40599282    -0.11500
C1742       C  0.87846500  0.61626490  0.41903946     0.05600
C1743       C  0.89783707  0.61047564  0.44162388    -0.10300
C1744       C  0.91789106  0.63124167  0.45069184    -0.11900
C1745       C  0.91873072  0.65849934  0.43780213    -0.01700
C1746       C  0.89935209  0.66430928  0.41544690    -0.10800
C1747       C  0.85782095  0.59399527  0.40798405     0.05600
H1748       H  0.89739299  0.59008308  0.45264541     0.07600
H1749       H  0.93228930  0.62614339  0.46825238     0.11000
H1750       H  0.89941932  0.68499700  0.40493631     0.11300
H1751       H  0.86621703  0.64875326  0.38791685     0.07600
C1752       C  0.83231354  0.60204786  0.39387312    -0.11500
C1753       C  0.81545392  0.58188117  0.37919622    -0.10800
C1754       C  0.82293068  0.55303646  0.37940355    -0.01700
C1755       C  0.84674281  0.54434819  0.39551977    -0.11900
C1756       C  0.86427110  0.56464318  0.40937122    -0.10300
H1757       H  0.82561704  0.62408719  0.39341151     0.07600
H1758       H  0.79679479  0.58884529  0.36727346     0.11300
H1759       H  0.85278541  0.52206128  0.39590999     0.11000
H1760       H  0.88360251  0.55730946  0.41978018     0.07600
C1761       C  0.09242475  0.87189105  0.38715216    -0.11500
C1762       C  0.08070120  0.89936409  0.38485144     0.05600
C1763       C  0.05514738  0.90486177  0.39966342    -0.10300
C1764       C  0.04210706  0.88356697  0.41679720    -0.11900
C1765       C  0.05406200  0.85611222  0.41916577    -0.01700
C1766       C  0.07927658  0.85059841  0.40391837    -0.10800
C1767       C  0.09590168  0.92216472  0.36786111     0.05600
H1768       H  0.04559996  0.92580769  0.39852255     0.07600
H1769       H  0.02257271  0.88855421  0.42806080     0.11000
H1770       H  0.08912760  0.82980584  0.40518521     0.11300
H1771       H  0.11184871  0.86675289  0.37579138     0.07600
C1772       C  0.12586776  0.92491117  0.36957910    -0.11500
C1773       C  0.14061240  0.94597505  0.35394583    -0.10800
C1774       C  0.12599735  0.96499687  0.33562632    -0.01700
C1775       C  0.09589769  0.96203883  0.33366504    -0.11900
C1776       C  0.08104714  0.94109379  0.34975419    -0.10300
H1777       H  0.13801118  0.91109966  0.38367156     0.07600
H1778       H  0.16352236  0.94762599  0.35711904     0.11300
H1779       H  0.08359975  0.97565043  0.31959942     0.11000
H1780       H  0.05796348  0.93939425  0.34765299     0.07600
C1781       C  0.90377055  0.93045453  0.35216819    -0.11500
C1782       C  0.88667400  0.91426826  0.37102144     0.05600
C1783       C  0.85748316  0.92035227  0.37334568    -0.10300
C1784       C  0.84564075  0.94252795  0.35725683    -0.11900
C1785       C  0.86269460  0.95875397  0.33815178    -0.01700
C1786       C  0.89190018  0.95238483  0.33583890    -0.10800
C1787       C  0.89964759  0.89169406  0.38881941     0.05600
H1788       H  0.84401958  0.90840413  0.38812642     0.07600
H1789       H  0.82324468  0.94724572  0.36032045     0.11000
H1790       H  0.90572734  0.96404172  0.32130950     0.11300
H1791       H  0.92634822  0.92595724  0.34991864     0.07600
C1792       C  0.88732092  0.86413276  0.39020734    -0.11500
C1793       C  0.90047776  0.84268690  0.40641729    -0.10800
C1794       C  0.92587650  0.84871182  0.42185025    -0.01700
C1795       C  0.93776833  0.87649543  0.42069803    -0.11900
C1796       C  0.92487584  0.89768047  0.40427364    -0.10300
H1797       H  0.86786925  0.85909714  0.37831540     0.07600
H1798       H  0.89077410  0.82150529  0.40693184     0.11300
H1799       H  0.95737746  0.88184858  0.43217888     0.11000
H1800       H  0.93458660  0.91886477  0.40371416     0.07600
C1801       C  0.92989761  0.89844907  0.58404728    -0.11500
C1802       C  0.90191623  0.89392513  0.59417151     0.05600
C1803       C  0.88758311  0.86805404  0.58765146    -0.10300
C1804       C  0.90115288  0.84688703  0.57172296    -0.11900
C1805       C  0.92909019  0.85147927  0.56152340    -0.01700
C1806       C  0.94322814  0.87755754  0.56759954    -0.10800
C1807       C  0.88769924  0.91599108  0.61166003     0.05600
H1808       H  0.86604322  0.86402030  0.59534563     0.07600
H1809       H  0.88974357  0.82704510  0.56716931     0.11000
H1810       H  0.96483663  0.88156785  0.56007097     0.11300
H1811       H  0.94133178  0.91826607  0.58863311     0.07600
C1812       C  0.90195757  0.92876795  0.63511432    -0.11500
C1813       C  0.88803850  0.94871480  0.65229493    -0.10800
C1814       C  0.85972519  0.95670168  0.64607953    -0.01700
C1815       C  0.84575130  0.94423418  0.62217659    -0.11900
C1816       C  0.85950492  0.92397872  0.60533099    -0.10300
H1817       H  0.92364167  0.92275434  0.64059582     0.07600
H1818       H  0.89936731  0.95733987  0.67075427     0.11300
H1819       H  0.82427077  0.95032191  0.61611572     0.11000
H1820       H  0.84820304  0.91475095  0.58709743     0.07600
C1821       C  0.10899145  0.91243934  0.64468055    -0.11500
C1822       C  0.09035761  0.92033264  0.62211190     0.05600
C1823       C  0.08422627  0.94968443  0.61891963    -0.10300
C1824       C  0.09758369  0.97034190  0.63650968    -0.11900
C1825       C  0.11781796  0.96230558  0.65734613    -0.01700
C1826       C  0.12279838  0.93310866  0.66170884    -0.10800
C1827       C  0.07846206  0.89817470  0.60160577     0.05600
H1828       H  0.07017628  0.95709634  0.60201655     0.07600
H1829       H  0.09328874  0.99273121  0.63265559     0.11000
H1830       H  0.13769755  0.92622435  0.67817365     0.11300
H1831       H  0.11335914  0.89023620  0.64919585     0.07600
C1832       C  0.09295808  0.87228029  0.59703025    -0.11500
C1833       C  0.08171104  0.85120795  0.57865932    -0.10800
C1834       C  0.05602127  0.85560504  0.56355573    -0.01700
C1835       C  0.04203226  0.88178201  0.56703668    -0.11900
C1836       C  0.05286448  0.90260116  0.58601615    -0.10300
H1837       H  0.11327321  0.86811574  0.60738025     0.07600
H1838       H  0.09327477  0.83145613  0.57618247     0.11300
H1839       H  0.02210056  0.88583253  0.55580446     0.11000
H1840       H  0.04061267  0.92181721  0.58882682     0.07600
C1841       C  0.23571895  0.78873987  0.46741354    -0.11500
C1842       C  0.21818942  0.79224412  0.49144240     0.05600
C1843       C  0.23004388  0.80451650  0.51647455    -0.10300
C1844       C  0.25900324  0.81266065  0.51762172    -0.11900
C1845       C  0.27675768  0.80869312  0.49363873    -0.01700
C1846       C  0.26448391  0.79701696  0.46845331    -0.10800
C1847       C  0.18758575  0.78334726  0.49023034     0.05600
H1848       H  0.21688537  0.80786053  0.53521783     0.07600
H1849       H  0.26716567  0.82129514  0.53756794     0.11000
H1850       H  0.27759681  0.79334012  0.44972974     0.11300
H1851       H  0.22736023  0.77898776  0.44794799     0.07600
C1852       C  0.17106205  0.78857225  0.46545490    -0.11500
C1853       C  0.14193108  0.78135911  0.46472218    -0.10800
C1854       C  0.12870334  0.76888150  0.48881618    -0.01700
C1855       C  0.14539791  0.76290804  0.51327586    -0.11900
C1856       C  0.17454783  0.76999717  0.51394664    -0.10300
H1857       H  0.18044282  0.79908961  0.44694023     0.07600
H1858       H  0.12957872  0.78652065  0.44566883     0.11300
H1859       H  0.13584506  0.75308207  0.53208347     0.11000
H1860       H  0.18686673  0.76516219  0.53309883     0.07600
C1861       C  0.38807062  0.65532327  0.46580970    -0.11500
C1862       C  0.40709055  0.67898581  0.46803703     0.05600
C1863       C  0.43662773  0.67404875  0.46989097    -0.10300
C1864       C  0.44678976  0.64615498  0.47100757    -0.11900
C1865       C  0.42770083  0.62266522  0.46993368    -0.01700
C1866       C  0.39832601  0.62732949  0.46671256    -0.10800
C1867       C  0.39592477  0.70848485  0.47031084     0.05600
H1868       H  0.45182045  0.69174116  0.47121642     0.07600
H1869       H  0.46958918  0.64284828  0.47375143     0.11000
H1870       H  0.38329071  0.60945164  0.46653313     0.11300
H1871       H  0.36514132  0.65841402  0.46481058     0.07600
C1872       C  0.37205012  0.71656396  0.45392690    -0.11500
C1873       C  0.35916724  0.74280500  0.45862242    -0.10800
C1874       C  0.36986497  0.76162106  0.47977408    -0.01700
C1875       C  0.39482477  0.75458279  0.49488696    -0.11900
C1876       C  0.40773657  0.72812193  0.49026882    -0.10300
H1877       H  0.36289241  0.70227602  0.43792806     0.07600
H1878       H  0.34023062  0.74808839  0.44623242     0.11300
H1879       H  0.40334475  0.76876720  0.51132375     0.11000
H1880       H  0.42606060  0.72245746  0.50335942     0.07600
C1881       C  0.23477843  0.23285137  0.52101871    -0.11500
C1882       C  0.21618987  0.22705629  0.49786276     0.05600
C1883       C  0.22621462  0.21101635  0.47465658    -0.10300
C1884       C  0.25432195  0.20118695  0.47440914    -0.11900
C1885       C  0.27319962  0.20715342  0.49748606    -0.01700
C1886       C  0.26286462  0.22305230  0.52080675    -0.10800
C1887       C  0.18632511  0.23737615  0.49810875     0.05600
H1888       H  0.21225872  0.20596408  0.45663075     0.07600
H1889       H  0.26094408  0.18976473  0.45557815     0.11000
H1890       H  0.27691527  0.22858324  0.53862862     0.11300
H1891       H  0.22780953  0.24553277  0.53904910     0.07600
C1892       C  0.17034207  0.23612295  0.52352498    -0.11500
C1893       C  0.14193883  0.24486418  0.52375452    -0.10800
C1894       C  0.12872874  0.25487465  0.49849398    -0.01700
C1895       C  0.14483503  0.25659672  0.47312339    -0.11900
C1896       C  0.17339091  0.24799451  0.47295676    -0.10300
H1897       H  0.17953548  0.22756349  0.54309979     0.07600
H1898       H  0.13003174  0.24271559  0.54356143     0.11300
H1899       H  0.13525236  0.26412643  0.45330041     0.11000
H1900       H  0.18532253  0.24954752  0.45312280     0.07600
C1901       C  0.40703157  0.27927081  0.51738633    -0.11500
C1902       C  0.40615722  0.29825388  0.49391908     0.05600
C1903       C  0.38876881  0.29141517  0.47009083    -0.10300
C1904       C  0.37157922  0.26673291  0.47026347    -0.11900
C1905       C  0.37201096  0.24820815  0.49395768    -0.01700
C1906       C  0.39024387  0.25422289  0.51726802    -0.10800
C1907       C  0.42109368  0.32637123  0.49521249     0.05600
H1908       H  0.38744680  0.30586570  0.45192636     0.07600
H1909       H  0.35745708  0.26235785  0.45218215     0.11000
H1910       H  0.39054143  0.24018858  0.53582084     0.11300
H1911       H  0.42026825  0.28413424  0.53599535     0.07600
C1912       C  0.41764125  0.34401696  0.51925963    -0.11500
C1913       C  0.42876516  0.37190689  0.51935262    -0.10800
C1914       C  0.44391352  0.38261651  0.49552442    -0.01700
C1915       C  0.44837341  0.36453152  0.47191931    -0.11900
C1916       C  0.43682540  0.33674435  0.47165743    -0.10300
H1917       H  0.40536070  0.33659980  0.53756182     0.07600
H1918       H  0.42525856  0.38518642  0.53800937     0.11300
H1919       H  0.46004339  0.37213619  0.45329882     0.11000
H1920       H  0.43982876  0.32346196  0.45290663     0.07600
C1921       C  0.72063722  0.26960326  0.01333983    -0.11500
C1922       C  0.70545613  0.28815947  0.99520990     0.05600
C1923       C  0.68419664  0.27639779  0.97700901    -0.10300
C1924       C  0.67878380  0.24680224  0.97644193    -0.11900
C1925       C  0.69461836  0.22806717  0.99408109    -0.01700
C1926       C  0.71514632  0.24015424  0.01292302    -0.10800
C1927       C  0.71211201  0.31953334  0.99526447     0.05600
H1928       H  0.67161445  0.29011030  0.96321481     0.07600
H1929       H  0.66228097  0.23916056  0.96197448     0.11000
H1930       H  0.72762645  0.22652975  0.02691633     0.11300
H1931       H  0.73738043  0.27773260  0.02744326     0.07600
C1932       C  0.71926218  0.33368213  0.02104396    -0.11500
C1933       C  0.72634353  0.36287375  0.02119704    -0.10800
C1934       C  0.72657154  0.37883314  0.99554980    -0.01700
C1935       C  0.71919460  0.36475677  0.96973035    -0.11900
C1936       C  0.71205468  0.33550934  0.96959654    -0.10300
H1937       H  0.71909510  0.32224027  0.04128830     0.07600
H1938       H  0.73164004  0.37292488  0.04152485     0.11300
H1939       H  0.71886447  0.37633224  0.94955275     0.11000
H1940       H  0.70697958  0.32531208  0.94928686     0.07600
C1941       C  0.78967341  0.13228020  0.95188130    -0.11500
C1942       C  0.80116990  0.11401202  0.97275441     0.05600
C1943       C  0.78378465  0.10495977  0.99576818    -0.10300
C1944       C  0.75605224  0.11555971  0.99889175    -0.11900
C1945       C  0.74559825  0.13581043  0.97938495    -0.01700
C1946       C  0.76219980  0.14328128  0.95530872    -0.10800
C1947       C  0.83198614  0.10679526  0.97226309     0.05600
H1948       H  0.79214075  0.09057852  0.01195385     0.07600
H1949       H  0.74361238  0.10951530  0.01757306     0.11000
H1950       H  0.75438440  0.15872108  0.93985977     0.11300
H1951       H  0.80260786  0.13948270  0.93395239     0.07600
C1952       C  0.84473945  0.09492840  0.94779512    -0.11500
C1953       C  0.87353389  0.08660642  0.94857349    -0.10800
C1954       C  0.88990237  0.09029582  0.97375821    -0.01700
C1955       C  0.87754896  0.10398241  0.99744451    -0.11900
C1956       C  0.84891450  0.11199548  0.99674606    -0.10300
H1957       H  0.83208112  0.09091752  0.92860339     0.07600
H1958       H  0.88238441  0.07563580  0.93025528     0.11300
H1959       H  0.88969582  0.10713960  0.01714344     0.11000
H1960       H  0.83976581  0.12175257  0.01561604     0.07600
C1961       C  0.30123167  0.28016960  0.01566814    -0.11500
C1962       C  0.28268810  0.29028733  0.99412796     0.05600
C1963       C  0.27330446  0.27114857  0.97268574    -0.10300
C1964       C  0.28095560  0.24238738  0.97371157    -0.11900
C1965       C  0.29792624  0.23172594  0.99631803    -0.01700
C1966       C  0.30866841  0.25133929  0.01687306    -0.10800
C1967       C  0.27224019  0.32027266  0.99481801     0.05600
H1968       H  0.25906147  0.27802524  0.95567347     0.07600
H1969       H  0.27281037  0.22809302  0.95718566     0.11000
H1970       H  0.32274661  0.24504656  0.03409778     0.11300
H1971       H  0.30987687  0.29452103  0.03188108     0.07600
C1972       C  0.26717409  0.33385789  0.02123323    -0.11500
C1973       C  0.25779004  0.36208807  0.02214782    -0.10800
C1974       C  0.25300595  0.37748179  0.99665136    -0.01700
C1975       C  0.25703321  0.36356955  0.97019397    -0.11900
C1976       C  0.26667058  0.33541156  0.96928841    -0.10300
H1977       H  0.27039977  0.32266780  0.04134933     0.07600
H1978       H  0.25490596  0.37202148  0.04290599     0.11300
H1979       H  0.25368056  0.37472378  0.95006087     0.11000
H1980       H  0.27047739  0.32583539  0.94853228     0.07600
C1981       C  0.16438335  0.07149435  0.01590571    -0.11500
C1982       C  0.18059771  0.07695906  0.99117075     0.05600
C1983       C  0.16981816  0.06749273  0.96437251    -0.10300
C1984       C  0.14244466  0.05456703  0.96233016    -0.11900
C1985       C  0.12559848  0.05127439  0.98705596    -0.01700
C1986       C  0.13723300  0.05905600  0.01383632    -0.10800
C1987       C  0.20707826  0.09495217  0.99351326     0.05600
H1988       H  0.18182681  0.07147039  0.94490376     0.07600
H1989       H  0.13387270  0.04871713  0.94143530     0.11000
H1990       H  0.12485110  0.05625143  0.03329073     0.11300
H1991       H  0.17231682  0.07774960  0.03692414     0.07600
C1992       C  0.20740844  0.11886037  0.01183964    -0.11500
C1993       C  0.23128866  0.13702537  0.01339417    -0.10800
C1994       C  0.25551081  0.13186848  0.99663564    -0.01700
C1995       C  0.25579746  0.10747644  0.97902462    -0.11900
C1996       C  0.23166786  0.08924947  0.97730596    -0.10300
H1997       H  0.18878278  0.12412069  0.02441985     0.07600
H1998       H  0.23066347  0.15538485  0.02751881     0.11300
H1999       H  0.27425847  0.10305612  0.96586655     0.11000
H2000       H  0.23215914  0.07084654  0.96324185     0.07600
C2001       C  0.75717555  0.79121691  0.52466546    -0.11500
C2002       C  0.77542813  0.79715271  0.50151316     0.05600
C2003       C  0.76497420  0.81302116  0.47819782    -0.10300
C2004       C  0.73641875  0.82143732  0.47724357    -0.11900
C2005       C  0.71746883  0.81419002  0.49973360    -0.01700
C2006       C  0.72858530  0.79956378  0.52373491    -0.10800
C2007       C  0.80478363  0.78556723  0.50094508     0.05600
H2008       H  0.77878965  0.81844038  0.46031435     0.07600
H2009       H  0.72963440  0.83256572  0.45818566     0.11000
H2010       H  0.71471835  0.79358434  0.54139762     0.11300
H2011       H  0.76461022  0.77894409  0.54293156     0.07600
C2012       C  0.82197289  0.78569314  0.52579109    -0.11500
C2013       C  0.84971626  0.77504236  0.52498316    -0.10800
C2014       C  0.86094992  0.76426686  0.49921195    -0.01700
C2015       C  0.84342488  0.76330858  0.47463367    -0.11900
C2016       C  0.81562360  0.77383459  0.47550226    -0.10300
H2017       H  0.81426541  0.79476422  0.54564040     0.07600
H2018       H  0.86276397  0.77647670  0.54427776     0.11300
H2019       H  0.85142886  0.75508996  0.45452996     0.11000
H2020       H  0.80259514  0.77286402  0.45618588     0.07600
C2021       C  0.56586541  0.67285966  0.47318395    -0.11500
C2022       C  0.56820697  0.69012111  0.49780381     0.05600
C2023       C  0.55550037  0.68034636  0.52347053    -0.10300
C2024       C  0.54198297  0.65333304  0.52472017    -0.11900
C2025       C  0.54130300  0.63553334  0.50043691    -0.01700
C2026       C  0.55277556  0.64588849  0.47453165    -0.10800
C2027       C  0.58545456  0.71721225  0.49683373     0.05600
H2028       H  0.55702218  0.69304467  0.54285988     0.07600
H2029       H  0.53321705  0.64586949  0.54493038     0.11000
H2030       H  0.55195724  0.63290271  0.45527791     0.11300
H2031       H  0.57463428  0.68000956  0.45287039     0.07600
C2032       C  0.61105661  0.71831170  0.48108196    -0.11500
C2033       C  0.62796949  0.74314099  0.48045210    -0.10800
C2034       C  0.61997281  0.76759796  0.49576008    -0.01700
C2035       C  0.59412751  0.76685874  0.51111584    -0.11900
C2036       C  0.57708036  0.74185120  0.51175742    -0.10300
H2037       H  0.61844964  0.69969470  0.46966314     0.07600
H2038       H  0.64750406  0.74308450  0.46802988     0.11300
H2039       H  0.58749481  0.78528676  0.52330020     0.11000
H2040       H  0.55737305  0.74179172  0.52390419     0.07600
C2041       C  0.69830277  0.74641729  0.01826692    -0.11500
C2042       C  0.71988992  0.73762140  0.99950389     0.05600
C2043       C  0.73242895  0.75809136  0.98112922    -0.10300
C2044       C  0.72383761  0.78670427  0.98194203    -0.11900
C2045       C  0.70271461  0.79577862  0.00134536    -0.01700
C2046       C  0.68977433  0.77492540  0.01915377    -0.10800
C2047       C  0.72868487  0.70706428  0.99908348     0.05600
H2048       H  0.74913393  0.75207498  0.96637767     0.07600
H2049       H  0.73397811  0.80195652  0.96754629     0.11000
H2050       H  0.67260896  0.77993225  0.03355690     0.11300
H2051       H  0.68753334  0.73104571  0.03206053     0.07600
C2052       C  0.73083112  0.69147936  0.02487405    -0.11500
C2053       C  0.73693776  0.66227975  0.02464747    -0.10800
C2054       C  0.74099664  0.64775059  0.99858338    -0.01700
C2055       C  0.73978248  0.66355119  0.97278854    -0.11900
C2056       C  0.73376923  0.69285375  0.97304656    -0.10300
H2057       H  0.72752548  0.70185371  0.04534257     0.07600
H2058       H  0.73776552  0.65096822  0.04495549     0.11300
H2059       H  0.74278392  0.65315708  0.95227816     0.11000
H2060       H  0.73209445  0.70414483  0.95278141     0.07600
C2061       C  0.82454062  0.96364605  0.03639314    -0.11500
C2062       C  0.81022041  0.95413339  0.01140900     0.05600
C2063       C  0.82391259  0.95707270  0.98478453    -0.10300
C2064       C  0.85197852  0.96768128  0.98329688    -0.11900
C2065       C  0.86673367  0.97615118  0.00831745    -0.01700
C2066       C  0.85248374  0.97495657  0.03480815    -0.10800
C2067       C  0.78297757  0.93754763  0.01312487     0.05600
H2068       H  0.81350033  0.94960244  0.96527195     0.07600
H2069       H  0.86243122  0.96869347  0.96259430     0.11000
H2070       H  0.86344056  0.98140411  0.05439258     0.11300
H2071       H  0.81440990  0.96151775  0.05717890     0.07600
C2072       C  0.78120028  0.91384617  0.03159463    -0.11500
C2073       C  0.75828245  0.89445727  0.02937937    -0.10800
C2074       C  0.73651589  0.89851597  0.00885109    -0.01700
C2075       C  0.73705292  0.92338089  0.99189502    -0.11900
C2076       C  0.76031105  0.94261751  0.99378176    -0.10300
H2077       H  0.79843662  0.90934233  0.04655268     0.07600
H2078       H  0.75800555  0.87577758  0.04318267     0.11300
H2079       H  0.72041136  0.92707797  0.97606703     0.11000
H2080       H  0.76118203  0.96084701  0.97939672     0.07600
C2081       C  0.26540993  0.69079793  0.97333509    -0.11500
C2082       C  0.27593635  0.70386265  0.99858238     0.05600
C2083       C  0.27768011  0.68742123  0.02382731    -0.10300
C2084       C  0.26904353  0.65877272  0.02394084    -0.11900
C2085       C  0.25894965  0.64557647  0.99867278    -0.01700
C2086       C  0.25715568  0.66192272  0.97334172    -0.10800
C2087       C  0.28440108  0.73463635  0.99891703     0.05600
H2088       H  0.28623819  0.69649904  0.04351713     0.07600
H2089       H  0.27111611  0.64675375  0.04374274     0.11000
H2090       H  0.24947771  0.65239981  0.95348672     0.11300
H2091       H  0.26324534  0.70291040  0.95361101     0.07600
C2092       C  0.29695081  0.74772632  0.97477243    -0.11500
C2093       C  0.30311419  0.77707062  0.97458916    -0.10800
C2094       C  0.29704759  0.79404768  0.99873479    -0.01700
C2095       C  0.28601398  0.78048388  0.02338485    -0.11900
C2096       C  0.27942935  0.75135257  0.02337274    -0.10300
H2097       H  0.30183024  0.73534393  0.95583983     0.07600
H2098       H  0.31202006  0.78595927  0.95518151     0.11300
H2099       H  0.28121446  0.79284347  0.04238110     0.11000
H2100       H  0.26946806  0.74222193  0.04228572     0.07600
C2101       C  0.20939659  0.91976505  0.00284870    -0.11500
C2102       C  0.19031012  0.90768133  0.02299599     0.05600
C2103       C  0.19980855  0.88559185  0.04090545    -0.10300
C2104       C  0.22700739  0.87412645  0.03695233    -0.11900
C2105       C  0.24520652  0.88478865  0.01526940    -0.01700
C2106       C  0.23671580  0.90850505  0.99912681    -0.10800
C2107       C  0.15970380  0.91564547  0.02238926     0.05600
H2108       H  0.18555444  0.87596203  0.05657955     0.07600
H2109       H  0.23337285  0.85603780  0.04997128     0.11000
H2110       H  0.25039006  0.91706260  0.98236703     0.11300
H2111       H  0.20260124  0.93707970  0.98901264     0.07600
C2112       C  0.14459403  0.92270372  0.04743164    -0.11500
C2113       C  0.11619147  0.93226447  0.04549557    -0.10800
C2114       C  0.10261631  0.93449252  0.01852570    -0.01700
C2115       C  0.11725229  0.92522208  0.99397545    -0.11900
C2116       C  0.14539498  0.91614256  0.99587278    -0.10300
H2117       H  0.15514982  0.92207293  0.06820733     0.07600
H2118       H  0.10551406  0.93937077  0.06474021     0.11300
H2119       H  0.10734975  0.92618857  0.97287928     0.11000
H2120       H  0.15624055  0.90995039  0.97638332     0.07600
C2121       C  0.26585950  0.03203391  0.30561039    -0.11500
C2122       C  0.27500239  0.01324728  0.28412686     0.05600
C2123       C  0.25480962  0.99469585  0.27129312    -0.10300
C2124       C  0.22601515  0.99555798  0.27914255    -0.11900
C2125       C  0.21642901  0.01519096  0.29978590    -0.01700
C2126       C  0.23699702  0.03305902  0.31336388    -0.10800
C2127       C  0.30536545  0.01351306  0.27472905     0.05600
H2128       H  0.26109596  0.98005552  0.25455749     0.07600
H2129       H  0.21087657  0.98136206  0.26837309     0.11000
H2130       H  0.23138352  0.04806877  0.32983945     0.11300
H2131       H  0.28108981  0.04607743  0.31643797     0.07600
C2132       C  0.32050611  0.03954629  0.27176947    -0.11500
C2133       C  0.34921855  0.03995912  0.26347846    -0.10800
C2134       C  0.36353111  0.01431206  0.25790802    -0.01700
C2135       C  0.34818439  0.98827876  0.26031487    -0.11900
C2136       C  0.31943482  0.98789150  0.26859620    -0.10300
H2137       H  0.31011189  0.05968062  0.27582337     0.07600
H2138       H  0.36031425  0.06040990  0.26197999     0.11300
H2139       H  0.35852234  0.96808830  0.25639306     0.11000
H2140       H  0.30842499  0.96747008  0.27088501     0.07600
C2141       C  0.67730875  0.04239840  0.26362360    -0.11500
C2142       C  0.69156144  0.01653348  0.26804180     0.05600
C2143       C  0.67627826  0.99062359  0.26522389    -0.10300
C2144       C  0.64703587  0.99048655  0.25896381    -0.11900
C2145       C  0.63234435  0.01631888  0.25570270    -0.01700
C2146       C  0.64791711  0.04231322  0.25759239    -0.10800
C2147       C  0.72215874  0.01623563  0.27627485     0.05600
H2148       H  0.68698642  0.97041281  0.26811195     0.07600
H2149       H  0.63583626  0.97008931  0.25746154     0.11000
H2150       H  0.63732029  0.06262492  0.25507496     0.11300
H2151       H  0.68871608  0.06264317  0.26571952     0.07600
C2152       C  0.74255822  0.03227176  0.26091863    -0.11500
C2153       C  0.77165378  0.03043425  0.26790021    -0.10800
C2154       C  0.78100692  0.01213280  0.29005919    -0.01700
C2155       C  0.76011462  0.99765955  0.30657732    -0.11900
C2156       C  0.73113015  0.99936958  0.29948082    -0.10300
H2157       H  0.73603984  0.04578244  0.24318415     0.07600
H2158       H  0.78685605  0.04323587  0.25577468     0.11300
H2159       H  0.76582940  0.98523402  0.32529216     0.11000
H2160       H  0.71560528  0.98763454  0.31229681     0.07600
C2161       C  0.41536660  0.93313382  0.38971419    -0.11500
C2162       C  0.40676383  0.90505557  0.38276514     0.05600
C2163       C  0.41116418  0.89501738  0.35474163    -0.10300
C2164       C  0.42393534  0.91271335  0.33405930    -0.11900
C2165       C  0.43265349  0.94080509  0.34099811    -0.01700
C2166       C  0.42819308  0.95083927  0.36904480    -0.10800
C2167       C  0.39258889  0.88654165  0.40450270     0.05600
H2168       H  0.40494876  0.87336523  0.34893017     0.07600
H2169       H  0.42739229  0.90424593  0.31273387     0.11000
H2170       H  0.43443986  0.97245460  0.37494929     0.11300
H2171       H  0.41180175  0.94149762  0.41105947     0.07600
C2172       C  0.40404042  0.88404777  0.43237466    -0.11500
C2173       C  0.39015839  0.86711439  0.45301525    -0.10800
C2174       C  0.36435863  0.85267287  0.44628641    -0.01700
C2175       C  0.35303652  0.85507964  0.41833740    -0.11900
C2176       C  0.36710229  0.87168814  0.39762455    -0.10300
H2177       H  0.42378281  0.89514734  0.43813826     0.07600
H2178       H  0.39933698  0.86584529  0.47438771     0.11300
H2179       H  0.33342306  0.84388696  0.41236216     0.11000
H2180       H  0.35777281  0.87336561  0.37632874     0.07600
C2181       C  0.63049029  0.89475048  0.41350306    -0.11500
C2182       C  0.60116069  0.89059643  0.40795767     0.05600
C2183       C  0.58595562  0.86991300  0.42389778    -0.10300
C2184       C  0.59994597  0.85324826  0.44451333    -0.11900
C2185       C  0.62940845  0.85721393  0.45005325    -0.01700
C2186       C  0.64434684  0.87857187  0.43447588    -0.10800
C2187       C  0.58658940  0.90775244  0.38550872     0.05600
H2188       H  0.56333868  0.86610508  0.41989130     0.07600
H2189       H  0.58760506  0.83690170  0.45551456     0.11000
H2190       H  0.66671691  0.88336575  0.43858669     0.11300
H2191       H  0.64265121  0.91094784  0.40196162     0.07600
C2192       C  0.55946215  0.91932644  0.39052727    -0.11500
C2193       C  0.54603125  0.93594609  0.36951219    -0.10800
C2194       C  0.55934315  0.94105176  0.34295139    -0.01700
C2195       C  0.58624401  0.92905865  0.33776017    -0.11900
C2196       C  0.59982230  0.91278088  0.35889340    -0.10300
H2197       H  0.54885983  0.91593736  0.41090891     0.07600
H2198       H  0.52517317  0.94469922  0.37398730     0.11300
H2199       H  0.59702464  0.93265049  0.31749817     0.11000
H2200       H  0.62058657  0.90387352  0.35431216     0.07600
C2201       C  0.40181538  0.15299650  0.42055378    -0.11500
C2202       C  0.38876020  0.12859591  0.40849674     0.05600
C2203       C  0.36134556  0.12008747  0.41756707    -0.10300
C2204       C  0.34700915  0.13599024  0.43825831    -0.11900
C2205       C  0.36003335  0.16049819  0.45043743    -0.01700
C2206       C  0.38765517  0.16870757  0.44149657    -0.10800
C2207       C  0.40364543  0.11220202  0.38625215     0.05600
H2208       H  0.35095432  0.10131879  0.40838982     0.07600
H2209       H  0.32590474  0.12887647  0.44496272     0.11000
H2210       H  0.39810276  0.18765411  0.45016891     0.11300
H2211       H  0.42301829  0.15980416  0.41379711     0.07600
C2212       C  0.41131997  0.12536985  0.36026897    -0.11500
C2213       C  0.42516011  0.10984001  0.33899839    -0.10800
C2214       C  0.43215099  0.08108150  0.34366001    -0.01700
C2215       C  0.42473119  0.06800501  0.36987698    -0.11900
C2216       C  0.41024832  0.08338294  0.39087881    -0.10300
H2217       H  0.40630887  0.14759443  0.35636039     0.07600
H2218       H  0.43081819  0.12045004  0.31907001     0.11300
H2219       H  0.42979712  0.04582195  0.37396834     0.11000
H2220       H  0.40450362  0.07294966  0.41087954     0.07600
C2221       C  0.49059069  0.24820535  0.18593904    -0.11500
C2222       C  0.50114542  0.23765332  0.21212988     0.05600
C2223       C  0.51199587  0.25694504  0.23261870    -0.10300
C2224       C  0.51097491  0.28631617  0.22775392    -0.11900
C2225       C  0.49849009  0.29721742  0.20242955    -0.01700
C2226       C  0.48983639  0.27769324  0.18091452    -0.10800
C2227       C  0.50062418  0.20669035  0.21860543     0.05600
H2228       H  0.52077213  0.24929482  0.25277161     0.07600
H2229       H  0.52023626  0.30018316  0.24395871     0.11000
H2230       H  0.48186668  0.28525147  0.16040557     0.11300
H2231       H  0.48294839  0.23364632  0.16941663     0.07600
C2232       C  0.47546206  0.19032617  0.21455630    -0.11500
C2233       C  0.47446030  0.16156179  0.22283716    -0.10800
C2234       C  0.49874051  0.14857321  0.23496595    -0.01700
C2235       C  0.52399775  0.16493879  0.23853596    -0.11900
C2236       C  0.52487191  0.19371494  0.23056295    -0.10300
H2237       H  0.45642756  0.19994895  0.20554863     0.07600
H2238       H  0.45481892  0.14939524  0.21932166     0.11300
H2239       H  0.54312935  0.15551710  0.24753521     0.11000
H2240       H  0.54457283  0.20588458  0.23368161     0.07600
C2241       C  0.51601547  0.78252357  0.18871122    -0.11500
C2242       C  0.49643863  0.79223345  0.20916601     0.05600
C2243       C  0.47730504  0.77244020  0.22163008    -0.10300
C2244       C  0.47806026  0.74358488  0.21416196    -0.11900
C2245       C  0.49827021  0.73352569  0.19440563    -0.01700
C2246       C  0.51696088  0.75360623  0.18139440    -0.10800
C2247       C  0.49619316  0.82281388  0.21771927     0.05600
H2248       H  0.46218186  0.77909033  0.23774757     0.07600
H2249       H  0.46335651  0.72878553  0.22458765     0.11000
H2250       H  0.53269146  0.74759305  0.16580842     0.11300
H2251       H  0.53065756  0.79732826  0.17823230     0.07600
C2252       C  0.52197332  0.83852081  0.22036489    -0.11500
C2253       C  0.52182228  0.86723301  0.22845558    -0.10800
C2254       C  0.49589535  0.88099712  0.23421239    -0.01700
C2255       C  0.47008218  0.86524545  0.23171851    -0.11900
C2256       C  0.47024341  0.83650101  0.22352559    -0.10300
H2257       H  0.54237488  0.82856611  0.21644918     0.07600
H2258       H  0.54210659  0.87871291  0.22985401     0.11300
H2259       H  0.44968260  0.87520036  0.23567026     0.11000
H2260       H  0.44997183  0.82514431  0.22123285     0.07600
C2261       C  0.58862571  0.08425080  0.10434768    -0.11500
C2262       C  0.61556899  0.09561097  0.11254572     0.05600
C2263       C  0.62293265  0.09547065  0.14193109    -0.10300
C2264       C  0.60364840  0.08485970  0.16252929    -0.11900
C2265       C  0.57649797  0.07401718  0.15431148    -0.01700
C2266       C  0.56944495  0.07350610  0.12488417    -0.10800
C2267       C  0.63517944  0.10851689  0.09052412     0.05600
H2268       H  0.64366626  0.10350695  0.14903039     0.07600
H2269       H  0.61011916  0.08497763  0.18492014     0.11000
H2270       H  0.54885726  0.06516783  0.11767906     0.11300
H2271       H  0.58197557  0.08430348  0.08202147     0.07600
C2272       C  0.63702348  0.09660726  0.06287039    -0.11500
C2273       C  0.65278754  0.11033582  0.04119222    -0.10800
C2274       C  0.66743517  0.13632633  0.04650595    -0.01700
C2275       C  0.66681223  0.14749267  0.07463233    -0.11900
C2276       C  0.65086674  0.13382734  0.09629234    -0.10300
H2277       H  0.62570695  0.07687428  0.05773508     0.07600
H2278       H  0.65227661  0.10106703  0.01993365     0.11300
H2279       H  0.67815903  0.16716245  0.07988711     0.11000
H2280       H  0.64993862  0.14374588  0.11726197     0.07600
C2281       C  0.63771866  0.88701298  0.09758166    -0.11500
C2282       C  0.61905977  0.90910086  0.08967109     0.05600
C2283       C  0.61681538  0.91665494  0.06048489    -0.10300
C2284       C  0.63264282  0.90238952  0.03974836    -0.11900
C2285       C  0.65092290  0.88012563  0.04765157    -0.01700
C2286       C  0.65334981  0.87257541  0.07677713    -0.10800
C2287       C  0.60160916  0.92380481  0.11164187     0.05600
H2288       H  0.60233126  0.93317928  0.05349591     0.07600
H2289       H  0.63012725  0.90844610  0.01741409     0.11000
H2290       H  0.66780365  0.85593089  0.08357053     0.11300
H2291       H  0.64054051  0.88106542  0.11990305     0.07600
C2292       C  0.59069592  0.90856048  0.13537992    -0.11500
C2293       C  0.57446873  0.92231640  0.15613649    -0.10800
C2294       C  0.56827498  0.95141559  0.15325641    -0.01700
C2295       C  0.57856319  0.96665278  0.12937349    -0.11900
C2296       C  0.59537508  0.95306981  0.10893192    -0.10300
H2297       H  0.59438887  0.88588220  0.13780481     0.07600
H2298       H  0.56635877  0.91011737  0.17424282     0.11300
H2299       H  0.57417545  0.98922583  0.12690906     0.11000
H2300       H  0.60378819  0.96561964  0.09124016     0.07600
C2301       C  0.41457111  0.94343002  0.10088084    -0.11500
C2302       C  0.39119659  0.92614804  0.10946227     0.05600
C2303       C  0.38555146  0.92291010  0.13885913    -0.10300
C2304       C  0.40302210  0.93624254  0.15925840    -0.11900
C2305       C  0.42652148  0.95337944  0.15082953    -0.01700
C2306       C  0.43204613  0.95700432  0.12138072    -0.10800
C2307       C  0.37274921  0.91133233  0.08799019     0.05600
H2308       H  0.36737887  0.91027578  0.14617860     0.07600
H2309       H  0.39790710  0.93314924  0.18172483     0.11000
H2310       H  0.44993053  0.97012190  0.11416536     0.11300
H2311       H  0.41962953  0.94609335  0.07835195     0.07600
C2312       C  0.36532123  0.92487989  0.06213415    -0.11500
C2313       C  0.34786293  0.91088663  0.04200297    -0.10800
C2314       C  0.33784019  0.88280333  0.04699044    -0.01700
C2315       C  0.34478932  0.86954472  0.07321444    -0.11900
C2316       C  0.36208401  0.88359328  0.09341136    -0.10300
H2317       H  0.37264270  0.94650335  0.05762141     0.07600
H2318       H  0.34250810  0.92227856  0.02258549     0.11300
H2319       H  0.33674561  0.84834220  0.07836920     0.11000
H2320       H  0.36744819  0.87249385  0.11312051     0.07600
C2321       C  0.35409248  0.10220436  0.07298791    -0.11500
C2322       C  0.37690507  0.11712242  0.08625383     0.05600
C2323       C  0.38259342  0.14556905  0.07852641    -0.10300
C2324       C  0.36585922  0.15898271  0.05777670    -0.11900
C2325       C  0.34267825  0.14441095  0.04464449    -0.01700
C2326       C  0.33696836  0.11581251  0.05241155    -0.10800
C2327       C  0.39477104  0.10338628  0.10838668     0.05600
H2328       H  0.40030785  0.15729505  0.08830680     0.07600
H2329       H  0.37143250  0.18072005  0.05175580     0.11000
H2330       H  0.31909559  0.10410233  0.04296046     0.11300
H2331       H  0.34928896  0.08024046  0.07891613     0.07600
C2332       C  0.39796087  0.11608567  0.13552417    -0.11500
C2333       C  0.41484812  0.10329579  0.15663648    -0.10800
C2334       C  0.42926021  0.07784045  0.15079538    -0.01700
C2335       C  0.42661641  0.06550748  0.12331238    -0.11900
C2336       C  0.40926415  0.07806765  0.10235055    -0.10300
H2337       H  0.38704263  0.13573917  0.14047240     0.07600
H2338       H  0.41672246  0.11339249  0.17750465     0.11300
H2339       H  0.43748589  0.04586473  0.11820229     0.11000
H2340       H  0.40733176  0.06821291  0.08136551     0.07600
C2341       C  0.75407107  0.22888776  0.47924764    -0.11500
C2342       C  0.77249564  0.21783221  0.50024093     0.05600
C2343       C  0.76131116  0.19964297  0.52156835    -0.10300
C2344       C  0.73195777  0.19357835  0.52262278    -0.11900
C2345       C  0.71321854  0.20576791  0.50231796    -0.01700
C2346       C  0.72485767  0.22288819  0.48026384    -0.10800
C2347       C  0.80313026  0.22610230  0.50030544     0.05600
H2348       H  0.77525091  0.19043152  0.53770234     0.07600
H2349       H  0.72440322  0.18026117  0.53999570     0.11000
H2350       H  0.71101182  0.23265125  0.46437148     0.11300
H2351       H  0.76205905  0.24314184  0.46266800     0.07600
C2352       C  0.81830440  0.22769702  0.47441720    -0.11500
C2353       C  0.84714222  0.23579836  0.47437583    -0.10800
C2354       C  0.86144299  0.24246325  0.50026293    -0.01700
C2355       C  0.84611597  0.24116850  0.52614599    -0.11900
C2356       C  0.81721766  0.23310779  0.52615052    -0.10300
H2357       H  0.80798644  0.22221027  0.45421492     0.07600
H2358       H  0.85830322  0.23636692  0.45404888     0.11300
H2359       H  0.85644395  0.24624683  0.54644263     0.11000
H2360       H  0.80581532  0.23260091  0.54634532     0.07600
C2361       C  0.58163890  0.14652131  0.43841123    -0.11500
C2362       C  0.59316302  0.14443636  0.41059905     0.05600
C2363       C  0.61826750  0.16019001  0.40433493    -0.10300
C2364       C  0.63155795  0.17728273  0.42520676    -0.11900
C2365       C  0.62066042  0.17857824  0.45327976    -0.01700
C2366       C  0.59529346  0.16328234  0.45952643    -0.10800
C2367       C  0.57944157  0.12579124  0.38821282     0.05600
H2368       H  0.62817447  0.15886478  0.38342844     0.07600
H2369       H  0.65081392  0.18905265  0.41939337     0.11000
H2370       H  0.58647992  0.16333752  0.48097151     0.11300
H2371       H  0.56211695  0.13508404  0.44398287     0.07600
C2372       C  0.56578944  0.09977417  0.39563744    -0.11500
C2373       C  0.55383182  0.08195804  0.37442382    -0.10800
C2374       C  0.55561771  0.08945114  0.34519040    -0.01700
C2375       C  0.56881564  0.11565967  0.33781024    -0.11900
C2376       C  0.58041613  0.13361202  0.35900437    -0.10300
H2377       H  0.56487172  0.09277888  0.41779844     0.07600
H2378       H  0.54367048  0.06202420  0.38093010     0.11300
H2379       H  0.57009794  0.12245324  0.31558735     0.11000
H2380       H  0.58999712  0.15377916  0.35240477     0.07600
C2381       C  0.62415511  0.31377983  0.51652314    -0.11500
C2382       C  0.59624363  0.31390271  0.52741829     0.05600
C2383       C  0.58215775  0.28751204  0.53236685    -0.10300
C2384       C  0.59583803  0.26160293  0.52668990    -0.11900
C2385       C  0.62380455  0.26149400  0.51562613    -0.01700
C2386       C  0.63757983  0.28807231  0.51041397    -0.10800
C2387       C  0.58126309  0.34156411  0.53089853     0.05600
H2388       H  0.56055868  0.28691846  0.54072617     0.07600
H2389       H  0.58451970  0.24179983  0.53128028     0.11000
H2390       H  0.65862961  0.28935358  0.50091386     0.11300
H2391       H  0.63529564  0.33366996  0.51162675     0.07600
C2392       C  0.59573445  0.36604493  0.54167615    -0.11500
C2393       C  0.58286953  0.39299861  0.54059717    -0.10800
C2394       C  0.55553306  0.39586690  0.52834342    -0.01700
C2395       C  0.54052335  0.37120155  0.51914821    -0.11900
C2396       C  0.55314434  0.34437094  0.52056030    -0.10300
H2397       H  0.61734920  0.36446216  0.55007060     0.07600
H2398       H  0.59485704  0.41170915  0.54775244     0.11300
H2399       H  0.51928711  0.37286204  0.50977914     0.11000
H2400       H  0.54148690  0.32609201  0.51191991     0.07600
C2401       C  0.31618342  0.03011088  0.72361271    -0.11500
C2402       C  0.29933540  0.00503667  0.72499025     0.05600
C2403       C  0.31202471  0.97956398  0.73452431    -0.10300
C2404       C  0.34119551  0.97908537  0.74160509    -0.11900
C2405       C  0.35809539  0.00415787  0.73952572    -0.01700
C2406       C  0.34510732  0.02971178  0.73093106    -0.10800
C2407       C  0.26887814  0.00556438  0.71572303     0.05600
H2408       H  0.29946354  0.95998848  0.73632514     0.07600
H2409       H  0.35055469  0.95906296  0.74829901     0.11000
H2410       H  0.35750920  0.04935464  0.72879572     0.11300
H2411       H  0.30728006  0.04997302  0.71591597     0.07600
C2412       C  0.25203693  0.02949441  0.72143417    -0.11500
C2413       C  0.22355270  0.03022906  0.71237318    -0.10800
C2414       C  0.21076810  0.00681537  0.69795046    -0.01700
C2415       C  0.22795881  0.98315921  0.69154188    -0.11900
C2416       C  0.25664152  0.98260112  0.70032662    -0.10300
H2417       H  0.26067865  0.04751869  0.73340812     0.07600
H2418       H  0.21107243  0.04888537  0.71746347     0.11300
H2419       H  0.21975082  0.96482366  0.68000436     0.11000
H2420       H  0.26931716  0.96420891  0.69484490     0.07600
C2421       C  0.66835028  0.98090593  0.71828435    -0.11500
C2422       C  0.68352666  0.00695380  0.71535482     0.05600
C2423       C  0.66963543  0.03251970  0.72208588    -0.10300
C2424       C  0.64123649  0.03210542  0.73134629    -0.11900
C2425       C  0.62593857  0.00610321  0.73400567    -0.01700
C2426       C  0.63990179  0.98047837  0.72748889    -0.10800
C2427       C  0.71386870  0.00741543  0.70580621     0.05600
H2428       H  0.68053952  0.05297436  0.71967083     0.07600
H2429       H  0.63112707  0.05228203  0.73589066     0.11000
H2430       H  0.62873524  0.96006290  0.72900698     0.11300
H2431       H  0.67852706  0.96078065  0.71367677     0.07600
C2432       C  0.73381855  0.02662697  0.71810507    -0.11500
C2433       C  0.76263507  0.02600061  0.71030814    -0.10800
C2434       C  0.77255715  0.00571270  0.69051920    -0.01700
C2435       C  0.75217645  0.98752722  0.67706683    -0.11900
C2436       C  0.72326897  0.98836331  0.68468815    -0.10300
H2437       H  0.72738545  0.04157509  0.73449703     0.07600
H2438       H  0.77755566  0.04068592  0.72071505     0.11300
H2439       H  0.75799751  0.97239627  0.66078066     0.11000
H2440       H  0.70824639  0.97395109  0.67406441     0.07600
C2441       C  0.40358915  0.12070195  0.64062776    -0.11500
C2442       C  0.40328269  0.11318114  0.61140111     0.05600
C2443       C  0.41637799  0.08751074  0.60318412    -0.10300
C2444       C  0.42933172  0.06986166  0.62361737    -0.11900
C2445       C  0.42916048  0.07721912  0.65284146    -0.01700
C2446       C  0.41616479  0.10287570  0.66107722    -0.10800
C2447       C  0.38896847  0.13168536  0.58964473     0.05600
H2448       H  0.41616600  0.08064622  0.58099459     0.07600
H2449       H  0.43914526  0.05027224  0.61653624     0.11000
H2450       H  0.41599604  0.10946133  0.68337316     0.11300
H2451       H  0.39436533  0.14053907  0.64777769     0.07600
C2452       C  0.36419112  0.14704390  0.59651744    -0.11500
C2453       C  0.35014827  0.16337993  0.57564227    -0.10800
C2454       C  0.36034145  0.16450798  0.54729913    -0.01700
C2455       C  0.38518703  0.14933055  0.54055075    -0.11900
C2456       C  0.39949039  0.13349135  0.56147333    -0.10300
H2457       H  0.35516800  0.14596471  0.61786042     0.07600
H2458       H  0.33127054  0.17501978  0.58174437     0.11300
H2459       H  0.39341448  0.14896238  0.51889501     0.11000
H2460       H  0.41877683  0.12251067  0.55540361     0.07600
C2461       C  0.58022066  0.11989876  0.63707641    -0.11500
C2462       C  0.58097249  0.11083248  0.60843814     0.05600
C2463       C  0.56966548  0.08383137  0.60107590    -0.10300
C2464       C  0.55690055  0.06646007  0.62201234    -0.11900
C2465       C  0.55576510  0.07566871  0.65072569    -0.01700
C2466       C  0.56793397  0.10240367  0.65806588    -0.10800
C2467       C  0.59411328  0.12937473  0.58643542     0.05600
H2468       H  0.57028721  0.07644874  0.57904218     0.07600
H2469       H  0.54794201  0.04588593  0.61573833     0.11000
H2470       H  0.56747780  0.11011461  0.67998261     0.11300
H2471       H  0.58930091  0.14047589  0.64320638     0.07600
C2472       C  0.58539785  0.15783970  0.58304828    -0.11500
C2473       C  0.59895908  0.17572342  0.56304411    -0.10800
C2474       C  0.62175967  0.16545125  0.54679380    -0.01700
C2475       C  0.62993992  0.13680586  0.54973439    -0.11900
C2476       C  0.61612847  0.11886297  0.56930628    -0.10300
H2477       H  0.56827233  0.16620742  0.59602943     0.07600
H2478       H  0.59242242  0.19776183  0.56106247     0.11300
H2479       H  0.64728441  0.12840149  0.53707166     0.11000
H2480       H  0.62316449  0.09700370  0.57168034     0.07600
C2481       C  0.57910163  0.89027367  0.63864543    -0.11500
C2482       C  0.58394467  0.90161220  0.61106428     0.05600
C2483       C  0.57419731  0.92924829  0.60474899    -0.10300
C2484       C  0.55991943  0.94516371  0.62548829    -0.11900
C2485       C  0.55530718  0.93394484  0.65314116    -0.01700
C2486       C  0.56502751  0.90629177  0.65947816    -0.10800
C2487       C  0.59916500  0.88476700  0.58897022     0.05600
H2488       H  0.57799783  0.93877288  0.58386406     0.07600
H2489       H  0.55293572  0.96649216  0.62001695     0.11000
H2490       H  0.56152740  0.89691928  0.68049061     0.11300
H2491       H  0.58594511  0.86888110  0.64403732     0.07600
C2492       C  0.62316632  0.86844695  0.59644673    -0.11500
C2493       C  0.63769213  0.85293486  0.57556958    -0.10800
C2494       C  0.62851464  0.85335994  0.54676054    -0.01700
C2495       C  0.60445452  0.86955805  0.53929859    -0.11900
C2496       C  0.58995063  0.88507879  0.56015519    -0.10300
H2497       H  0.63099033  0.86800531  0.61839384     0.07600
H2498       H  0.65601628  0.84047389  0.58203270     0.11300
H2499       H  0.59711453  0.87077668  0.51722449     0.11000
H2500       H  0.57138959  0.89722290  0.55373818     0.07600
C2501       C  0.38710942  0.88992635  0.55907624    -0.11500
C2502       C  0.39469568  0.87744067  0.58553014     0.05600
C2503       C  0.38988497  0.84790920  0.58950851    -0.10300
C2504       C  0.37714129  0.83140467  0.56769031    -0.11900
C2505       C  0.36920144  0.84418686  0.54163704    -0.01700
C2506       C  0.37451928  0.87341709  0.53732733    -0.10800
C2507       C  0.40725967  0.89542905  0.60881003     0.05600
H2508       H  0.39584135  0.83764894  0.60950847     0.07600
H2509       H  0.37295109  0.80883785  0.57130263     0.11000
H2510       H  0.36799218  0.88364223  0.51747391     0.11300
H2511       H  0.39012868  0.91266256  0.55549532     0.07600
C2512       C  0.42760904  0.91680909  0.60222594    -0.11500
C2513       C  0.43891681  0.93447140  0.62370556    -0.10800
C2514       C  0.43025168  0.93121033  0.65244977    -0.01700
C2515       C  0.40995630  0.90969366  0.65913375    -0.11900
C2516       C  0.39858229  0.89197463  0.63751908    -0.10300
H2517       H  0.43503565  0.91973008  0.58040296     0.07600
H2518       H  0.45471155  0.95056281  0.61770262     0.11300
H2519       H  0.40280781  0.90656421  0.68102229     0.11000
H2520       H  0.38265854  0.87588473  0.64318308     0.07600
C2521       C  0.51791790  0.18589674  0.76518871    -0.11500
C2522       C  0.49248056  0.19879455  0.77452915     0.05600
C2523       C  0.46701591  0.18225540  0.77380541    -0.10300
C2524       C  0.46707246  0.15366051  0.76499470    -0.11900
C2525       C  0.49266310  0.14038352  0.75697820    -0.01700
C2526       C  0.51803217  0.15707110  0.75664753    -0.10800
C2527       C  0.49231374  0.22918874  0.78504606     0.05600
H2528       H  0.44699178  0.19101293  0.78102852     0.07600
H2529       H  0.44706488  0.14164814  0.76558678     0.11000
H2530       H  0.53812596  0.14772960  0.75033315     0.11300
H2531       H  0.53785123  0.19800603  0.76458610     0.07600
C2532       C  0.51611185  0.24140751  0.79953164    -0.11500
C2533       C  0.51624242  0.27022470  0.80815360    -0.10800
C2534       C  0.49239902  0.28773413  0.80272240    -0.01700
C2535       C  0.46811039  0.27491113  0.78969344    -0.11900
C2536       C  0.46816504  0.24637649  0.78070795    -0.10300
H2537       H  0.53484567  0.22876088  0.80409455     0.07600
H2538       H  0.53545317  0.27848905  0.81830999     0.11300
H2539       H  0.44936573  0.28756725  0.78510271     0.11000
H2540       H  0.44946081  0.23818168  0.76941329     0.07600
C2541       C  0.51365424  0.83096250  0.78187187    -0.11500
C2542       C  0.48919499  0.81412522  0.77604440     0.05600
C2543       C  0.46530652  0.82653744  0.76281655    -0.10300
C2544       C  0.46596639  0.85543202  0.75537876    -0.11900
C2545       C  0.49058151  0.87223507  0.76098028    -0.01700
C2546       C  0.51438472  0.85975017  0.77432869    -0.10800
C2547       C  0.48901636  0.78350639  0.78320714     0.05600
H2548       H  0.44632237  0.81380996  0.75790581     0.07600
H2549       H  0.44728331  0.86459862  0.74520002     0.11000
H2550       H  0.53336861  0.87236721  0.77952064     0.11300
H2551       H  0.53212386  0.82188826  0.79252989     0.07600
C2552       C  0.51286358  0.76696381  0.77672426    -0.11500
C2553       C  0.51298302  0.73803975  0.78349511    -0.10800
C2554       C  0.48913395  0.72480203  0.79656705    -0.01700
C2555       C  0.46523668  0.74160900  0.80321413    -0.11900
C2556       C  0.46524273  0.77069490  0.79655626    -0.10300
H2557       H  0.53133063  0.77635677  0.76610209     0.07600
H2558       H  0.53170519  0.72574453  0.77815362     0.11300
H2559       H  0.44644836  0.73294173  0.81355742     0.11000
H2560       H  0.44676922  0.78326604  0.80209105     0.07600
C2561       C  0.35860498  0.14312254  0.89831110    -0.11500
C2562       C  0.37450578  0.11860958  0.90520737     0.05600
C2563       C  0.37339448  0.10814804  0.93353837    -0.10300
C2564       C  0.35730201  0.12182396  0.95443188    -0.11900
C2565       C  0.34136343  0.14613763  0.94760597    -0.01700
C2566       C  0.34215711  0.15667367  0.91925981    -0.10800
C2567       C  0.39179685  0.10344177  0.88317507     0.05600
H2568       H  0.38471707  0.08903525  0.93966915     0.07600
H2569       H  0.35778176  0.11341768  0.97609894     0.11000
H2570       H  0.32991673  0.17524439  0.91317250     0.11300
H2571       H  0.35903490  0.15203632  0.87683193     0.07600
C2572       C  0.38255151  0.10172675  0.85439782    -0.11500
C2573       C  0.39797104  0.08603965  0.83428182    -0.10800
C2574       C  0.42302110  0.07153879  0.84236517    -0.01700
C2575       C  0.43235729  0.07334451  0.87105484    -0.11900
C2576       C  0.41716826  0.08935248  0.89106879    -0.10300
H2577       H  0.36299933  0.11189889  0.84746835     0.07600
H2578       H  0.39006235  0.08510509  0.81237031     0.11300
H2579       H  0.45170242  0.06277393  0.87800063     0.11000
H2580       H  0.42549286  0.09075792  0.91278308     0.07600
C2581       C  0.38145601  0.91326013  0.85952780    -0.11500
C2582       C  0.37658027  0.92851836  0.88500219     0.05600
C2583       C  0.39069045  0.95505953  0.88896233    -0.10300
C2584       C  0.40983191  0.96560797  0.86832645    -0.11900
C2585       C  0.41502227  0.94998887  0.84315796    -0.01700
C2586       C  0.40023906  0.92398553  0.83876536    -0.10800
C2587       C  0.35803713  0.91597307  0.90784586     0.05600
H2588       H  0.38699984  0.96765421  0.90804748     0.07600
H2589       H  0.42041097  0.98608064  0.87195342     0.11000
H2590       H  0.40374403  0.91153285  0.81954057     0.11300
H2591       H  0.37140054  0.89255520  0.85592854     0.07600
C2592       C  0.33363458  0.89929793  0.90074524    -0.11500
C2593       C  0.31782585  0.88536543  0.92218047    -0.10800
C2594       C  0.32577115  0.88822075  0.95115497    -0.01700
C2595       C  0.34978741  0.90512527  0.95833725    -0.11900
C2596       C  0.36571201  0.91894843  0.93697056    -0.10300
H2597       H  0.32693510  0.89670877  0.87858024     0.07600
H2598       H  0.29963872  0.87196876  0.91614102     0.11300
H2599       H  0.35732413  0.90627033  0.98025895     0.11000
H2600       H  0.38482707  0.93084841  0.94320709     0.07600
C2601       C  0.61992958  0.87404253  0.91055100    -0.11500
C2602       C  0.61973227  0.90386058  0.90698080     0.05600
C2603       C  0.63771426  0.92082381  0.92445275    -0.10300
C2604       C  0.65537276  0.90831299  0.94522219    -0.11900
C2605       C  0.65513707  0.87848677  0.94950820    -0.01700
C2606       C  0.63718677  0.86152237  0.93169543    -0.10800
C2607       C  0.60073425  0.91731259  0.88523357     0.05600
H2608       H  0.63834607  0.94384581  0.92180882     0.07600
H2609       H  0.66925583  0.92225461  0.95768952     0.11000
H2610       H  0.63570917  0.83858540  0.93443240     0.11300
H2611       H  0.60610429  0.86045019  0.89749790     0.07600
C2612       C  0.59922232  0.90665652  0.85707498    -0.11500
C2613       C  0.58165971  0.91960169  0.83649002    -0.10800
C2614       C  0.56482688  0.94326368  0.84368812    -0.01700
C2615       C  0.56622653  0.95377867  0.87197079    -0.11900
C2616       C  0.58411263  0.94104577  0.89245190    -0.10300
H2617       H  0.61200646  0.88856645  0.85086280     0.07600
H2618       H  0.58121001  0.91096520  0.81491440     0.11300
H2619       H  0.55377455  0.97208585  0.87821119     0.11000
H2620       H  0.58476707  0.94958816  0.91406513     0.07600
C2621       C  0.60545963  0.13089170  0.92623578    -0.11500
C2622       C  0.61700056  0.11002837  0.90816097     0.05600
C2623       C  0.64573164  0.10207388  0.91221066    -0.10300
C2624       C  0.66265905  0.11512635  0.93357604    -0.11900
C2625       C  0.65123029  0.13661131  0.95086734    -0.01700
C2626       C  0.62244558  0.14413039  0.94725897    -0.10800
C2627       C  0.59912444  0.09702725  0.88496782     0.05600
H2628       H  0.65510021  0.08582363  0.89881209     0.07600
H2629       H  0.68490804  0.10920462  0.93591313     0.11000
H2630       H  0.61322882  0.16062944  0.96047289     0.11300
H2631       H  0.58350800  0.13763560  0.92354026     0.07600
C2632       C  0.57038600  0.08931641  0.89011774    -0.11500
C2633       C  0.55355836  0.07686639  0.86846987    -0.10800
C2634       C  0.56498372  0.07209438  0.84109475    -0.01700
C2635       C  0.59348156  0.08048881  0.83562160    -0.11900
C2636       C  0.61045927  0.09262794  0.85742956    -0.10300
H2637       H  0.56105417  0.09236947  0.91110940     0.07600
H2638       H  0.53158367  0.07084121  0.87319718     0.11300
H2639       H  0.60285181  0.07704043  0.81469981     0.11000
H2640       H  0.63239158  0.09878353  0.85270222     0.07600
loop_ 
_geom_bond_atom_site_label_1 
_geom_bond_atom_site_label_2 
_geom_bond_distance 
_geom_bond_site_symmetry_2 
_ccdc_geom_bond_type 
O1          Zr37   2.445       .  S
O1           C12   1.294       .  A
O2          Zr36   2.436       .  S
O2           C13   1.292       .  A
O3           Zr9   2.439       .  S
O3           C14   1.293       .  A
O4           Zr9   2.456       .  S
O4           C15   1.296       .  A
O5          Zr39   2.445       .  S
O5           C15   1.295       .  A
O6          Zr38   2.438       .  S
O6           C14   1.293   1_565  A
O7           Zr9   2.432       .  S
O7           C13   1.291       .  A
O8           Zr9   2.430       .  S
O8           C12   1.291       .  A
Zr9          O10   2.333       .  S
Zr9          O11   2.343       .  S
Zr9          O19   2.343       .  S
Zr9          O17   2.344       .  S
O10         Zr36   2.342       .  S
O10         Zr39   2.336       .  S
O11         Zr37   2.344       .  S
O11         Zr38   2.339   1_545  S
C12        C2634   1.478       .  S
C13        C2465   1.478       .  S
C14        C2425   1.483       .  S
C15        C2525   1.494       .  S
H16          O17   0.966       .  S
O17         Zr36   2.330       .  S
O17         Zr38   2.346   1_545  S
H18          O19   0.966       .  S
O19         Zr37   2.334       .  S
O19         Zr39   2.337       .  S
O20         Zr36   2.427   1_565  S
O20          C43   1.291       .  A
O21         Zr37   2.444   1_565  S
O21          C44   1.294       .  A
O22         Zr38   2.442       .  S
O22          C45   1.293       .  A
O23         Zr39   2.423       .  S
O23          C46   1.290       .  A
O24         Zr39   2.434       .  S
O24          C47   1.292       .  A
O25         Zr38   2.438       .  S
O25          C48   1.293       .  A
O26         Zr40   2.420       .  S
O26          C49   1.289       .  A
O27         Zr40   2.426       .  S
O27          C50   1.290   1_565  A
O28         Zr38   2.434       .  S
O28          C49   1.292       .  A
O29         Zr39   2.436       .  S
O29          C50   1.293       .  A
O30         Zr36   2.447   1_565  S
O30          C45   1.294       .  A
O31         Zr37   2.453   1_565  S
O31          C48   1.296       .  A
O32         Zr37   2.452       .  S
O32          C47   1.296       .  A
O33         Zr36   2.448       .  S
O33          C46   1.295       .  A
O34         Zr40   2.449       .  S
O34          C43   1.294       .  A
O35         Zr40   2.437       .  S
O35          C44   1.293       .  A
Zr36         O42   2.343   1_545  S
Zr36         O54   2.337       .  S
Zr37         O41   2.337       .  S
Zr37         O52   2.343   1_545  S
Zr38         O42   2.335       .  S
Zr38         O52   2.348       .  S
Zr39         O41   2.324       .  S
Zr39         O54   2.346       .  S
Zr40         O41   2.333   1_565  S
Zr40         O42   2.335       .  S
Zr40         O54   2.342   1_565  S
Zr40         O52   2.351       .  S
C43        C2514   1.485       .  S
C44        C2585   1.479       .  S
C45        C2485   1.483       .  S
C46        C2445   1.482       .  S
C47        C2574   1.488       .  S
C48        C2614   1.488       .  S
C49        C2545   1.469       .  S
C50        C2405   1.477       .  S
H51          O52   0.967       .  S
H53          O54   0.964       .  S
C55          C56   1.534       .  S
C55          C61   1.525       .  S
C55          C59   1.530       .  S
C55        C2345   1.516       .  S
C56          H63   1.082       .  S
C56          C57   1.365       .  D
C57          C58   1.540       .  S
C57        C2474   1.472       .  S
C58          C62   1.553       .  S
C58          C60   1.549       .  S
C58          H64   1.108       .  S
C59          H65   1.085       .  S
C59          C60   1.367       .  D
C60        C2365   1.492       .  S
C61          H66   1.085       .  S
C61          C62   1.364       .  D
C62        C2385   1.499       .  S
O67        Zr103   2.443       .  S
O67          C78   1.294       .  A
O68        Zr102   2.436       .  S
O68          C79   1.292       .  A
O69         Zr75   2.427       .  S
O69          C80   1.291       .  A
O70         Zr75   2.446   1_565  S
O70          C81   1.294       .  A
O71        Zr105   2.431       .  S
O71          C81   1.292       .  A
O72        Zr104   2.448       .  S
O72          C80   1.295       .  A
O73         Zr75   2.446   1_565  S
O73          C79   1.294       .  A
O74         Zr75   2.444       .  S
O74          C78   1.294       .  A
Zr75         O76   2.336   1_545  S
Zr75         O77   2.347       .  S
Zr75         O85   2.340       .  S
Zr75         O83   2.333       .  S
O76        Zr102   2.335       .  S
O76        Zr105   2.334       .  S
O77        Zr103   2.335       .  S
O77        Zr104   2.335       .  S
C78        C2374   1.487       .  S
C79        C2165   1.482       .  S
C80        C2214   1.475       .  S
C81        C2194   1.479       .  S
H82          O83   0.967       .  S
O83        Zr102   2.334   1_545  S
O83        Zr104   2.345       .  S
H84          O85   0.965       .  S
O85        Zr103   2.356       .  S
O85        Zr105   2.351   1_545  S
O86        Zr102   2.422       .  S
O86         C109   1.290       .  A
O87        Zr103   2.452       .  S
O87         C110   1.295       .  A
O88        Zr104   2.439       .  S
O88         C111   1.293       .  A
O89        Zr105   2.444       .  S
O89         C112   1.294       .  A
O90        Zr105   2.444       .  S
O90         C113   1.295   1_565  A
O91        Zr104   2.436       .  S
O91         C114   1.293       .  A
O92        Zr106   2.419       .  S
O92         C115   1.289       .  A
O93        Zr106   2.430   1_565  S
O93         C116   1.290       .  A
O94        Zr104   2.446       .  S
O94         C115   1.295       .  A
O95        Zr105   2.434       .  S
O95         C116   1.291       .  A
O96        Zr102   2.442       .  S
O96         C111   1.294   1_565  A
O97        Zr103   2.440       .  S
O97         C114   1.294       .  A
O98        Zr103   2.426       .  S
O98         C113   1.291       .  A
O99        Zr102   2.435       .  S
O99         C112   1.292       .  A
O100       Zr106   2.433   1_565  S
O100        C109   1.292       .  A
O101       Zr106   2.445       .  S
O101        C110   1.294       .  A
Zr102       O108   2.336   1_565  S
Zr102       O120   2.344       .  S
Zr103       O107   2.334       .  S
Zr103       O118   2.340       .  S
Zr104       O108   2.335       .  S
Zr104       O118   2.349       .  S
Zr105       O107   2.332   1_565  S
Zr105       O120   2.341       .  S
Zr106       O107   2.330       .  S
Zr106       O108   2.347       .  S
Zr106       O120   2.332   1_545  S
Zr106       O118   2.332       .  S
C109       C2305   1.477       .  S
C110       C2265   1.492       .  S
C111       C2134   1.484       .  S
C112       C2254   1.483       .  S
C113       C2145   1.481       .  S
C114       C2234   1.479       .  S
C115       C2334   1.476       .  S
C116       C2294   1.468       .  S
H117        O118   0.966       .  S
H119        O120   0.967       .  S
C121        C122   1.539       .  S
C121        C127   1.530   1_556  S
C121        C125   1.537   1_556  S
C121       C2094   1.522       .  S
C122        H129   1.082       .  S
C122        C123   1.363       .  D
C123        C124   1.543   1_556  S
C123       C2594   1.479       .  S
C124        C128   1.542       .  S
C124        C126   1.542       .  S
C124        H130   1.108       .  S
C125        H131   1.085       .  S
C125        C126   1.372       .  D
C126       C2314   1.488       .  S
C127        H132   1.087       .  S
C127        C128   1.360       .  D
C128       C2105   1.481       .  S
C133        C134   1.548       .  S
C133        C139   1.534       .  S
C133        C137   1.537   1_554  S
C133       C2045   1.535       .  S
C134        H141   1.081       .  S
C134        C135   1.367       .  D
C135        C136   1.534       .  S
C135       C2285   1.482       .  S
C136        C140   1.536       .  S
C136        C138   1.546   1_554  S
C136        H142   1.107       .  S
C137        H143   1.084       .  S
C137        C138   1.372       .  D
C138       C2605   1.500       .  S
C139        H144   1.086       .  S
C139        C140   1.365       .  D
C140       C2074   1.483       .  S
C145        C146   1.541       .  S
C145        C151   1.531       .  S
C145        C149   1.538       .  S
C145       C2005   1.528       .  S
C146        H153   1.077       .  S
C146        C147   1.369       .  D
C147        C148   1.545       .  S
C147       C2185   1.496       .  S
C148        C152   1.542       .  S
C148        C150   1.540       .  S
C148        H154   1.106       .  S
C149        H155   1.086       .  S
C149        C150   1.369       .  D
C150       C2494   1.486       .  S
C151        H156   1.086       .  S
C151        C152   1.364       .  D
C152       C2034   1.490       .  S
C157        C158   1.541   1_556  S
C157        C163   1.535       .  S
C157        C161   1.537       .  S
C157       C1965   1.529       .  S
C158        H165   1.080       .  S
C158        C159   1.368       .  D
C159        C160   1.539   1_554  S
C159       C2325   1.486       .  S
C160        C164   1.537       .  S
C160        C162   1.543       .  S
C160        H166   1.108       .  S
C161        H167   1.086       .  S
C161        C162   1.368       .  D
C162       C2565   1.489       .  S
C163        H168   1.086       .  S
C163        C164   1.366       .  D
C164       C1994   1.484       .  S
C169        C170   1.541       .  S
C169        C175   1.532       .  S
C169        C173   1.538   1_556  S
C169       C1925   1.533       .  S
C170        H177   1.081       .  S
C170        C171   1.367       .  D
C171        C172   1.539       .  S
C171       C2625   1.478       .  S
C172        C176   1.541       .  S
C172        C174   1.552   1_556  S
C172        H178   1.109       .  S
C173        H179   1.085       .  S
C173        C174   1.373       .  D
C174       C2274   1.503       .  S
C175        H180   1.087       .  S
C175        C176   1.362       .  D
C176       C1945   1.483       .  S
C181        C182   1.545       .  S
C181        C187   1.531       .  S
C181        C185   1.543       .  S
C181       C1885   1.524       .  S
C182        H189   1.081       .  S
C182        C183   1.368       .  D
C183        C184   1.539       .  S
C183       C2205   1.485       .  S
C184        C188   1.530       .  S
C184        C186   1.541       .  S
C184        H190   1.108       .  S
C185        H191   1.085       .  S
C185        C186   1.372       .  D
C186       C2454   1.491       .  S
C187        H192   1.087       .  S
C187        C188   1.356       .  D
C188       C1905   1.470       .  S
C193        C194   1.541       .  S
C193        C199   1.526       .  S
C193        C197   1.540       .  S
C193       C1845   1.522       .  S
C194        H201   1.083       .  S
C194        C195   1.366       .  D
C195        C196   1.539       .  S
C195       C2505   1.471       .  S
C196        C200   1.540       .  S
C196        C198   1.541       .  S
C196        H202   1.110       .  S
C197        H203   1.086       .  S
C197        C198   1.370       .  D
C198       C2174   1.486       .  S
C199        H204   1.087       .  S
C199        C200   1.358       .  D
C200       C1874   1.478       .  S
O205       Zr241   2.455       .  S
O205        C216   1.296       .  A
O206       Zr240   2.445       .  S
O206        C217   1.294   1_455  A
O207       Zr213   2.437       .  S
O207        C218   1.292       .  A
O208       Zr213   2.450       .  S
O208        C219   1.294       .  A
O209       Zr243   2.428       .  S
O209        C219   1.291       .  A
O210       Zr242   2.437       .  S
O210        C218   1.292       .  A
O211       Zr213   2.424       .  S
O211        C217   1.290       .  A
O212       Zr213   2.407       .  S
O212        C216   1.287       .  A
Zr213       O214   2.333       .  S
Zr213       O215   2.338       .  S
Zr213       O223   2.341       .  S
Zr213       O221   2.337       .  S
O214       Zr240   2.339   1_655  S
O214       Zr243   2.345       .  S
O215       Zr241   2.335       .  S
O215       Zr242   2.338       .  S
C216       C2014   1.476       .  S
C217       C1665   1.481       .  S
C218       C1725   1.479       .  S
C219       C1805   1.477       .  S
H220        O221   0.965       .  S
O221       Zr240   2.338   1_655  S
O221       Zr242   2.329       .  S
H222        O223   0.966       .  S
O223       Zr241   2.345       .  S
O223       Zr243   2.334       .  S
O224       Zr240   2.434       .  S
O224        C247   1.292       .  A
O225       Zr241   2.452       .  S
O225        C248   1.296       .  A
O226       Zr242   2.448   1_455  S
O226        C249   1.294       .  A
O227       Zr243   2.446   1_455  S
O227        C250   1.294       .  A
O228       Zr243   2.438       .  S
O228        C251   1.293       .  A
O229       Zr242   2.442       .  S
O229        C252   1.293       .  A
O230       Zr244   2.445       .  S
O230        C253   1.294       .  A
O231       Zr244   2.465       .  S
O231        C254   1.297       .  A
O232       Zr242   2.423   1_455  S
O232        C253   1.290       .  A
O233       Zr243   2.444   1_455  S
O233        C254   1.293       .  A
O234       Zr240   2.440       .  S
O234        C249   1.293       .  A
O235       Zr241   2.442       .  S
O235        C252   1.294       .  A
O236       Zr241   2.434       .  S
O236        C251   1.292       .  A
O237       Zr240   2.443       .  S
O237        C250   1.294       .  A
O238       Zr244   2.432       .  S
O238        C247   1.292       .  A
O239       Zr244   2.417       .  S
O239        C248   1.289   1_455  A
Zr240       O246   2.337       .  S
Zr240       O258   2.349       .  S
Zr241       O245   2.346       .  S
Zr241       O256   2.345       .  S
Zr242       O246   2.342   1_655  S
Zr242       O256   2.342       .  S
Zr243       O245   2.339       .  S
Zr243       O258   2.333   1_655  S
Zr244       O245   2.332   1_455  S
Zr244       O246   2.339       .  S
Zr244       O258   2.340       .  S
Zr244       O256   2.358   1_455  S
C247       C1854   1.476       .  S
C248       C1654   1.478       .  S
C249       C1705   1.483       .  S
C250       C1834   1.487       .  S
C251       C1794   1.479       .  S
C252       C1745   1.485       .  S
C253       C1694   1.477       .  S
C254       C1765   1.495       .  S
H255        O256   0.965       .  S
H257        O258   0.965       .  S
O259       Zr295   2.423       .  S
O259        C270   1.290       .  A
O260       Zr294   2.426       .  S
O260        C271   1.290   1_455  A
O261       Zr267   2.456       .  S
O261        C272   1.296       .  A
O262       Zr267   2.451       .  S
O262        C273   1.295       .  A
O263       Zr297   2.433       .  S
O263        C273   1.292       .  A
O264       Zr296   2.446       .  S
O264        C272   1.294       .  A
O265       Zr267   2.436       .  S
O265        C271   1.293       .  A
O266       Zr267   2.436       .  S
O266        C270   1.293       .  A
Zr267       O268   2.341       .  S
Zr267       O269   2.339       .  S
Zr267       O277   2.340       .  S
Zr267       O275   2.334       .  S
O268       Zr294   2.338   1_655  S
O268       Zr297   2.338       .  S
O269       Zr295   2.341       .  S
O269       Zr296   2.331       .  S
C270       C2354   1.477       .  S
C271       C1465   1.478       .  S
C272       C1585   1.488       .  S
C273       C1505   1.480       .  S
H274        O275   0.966       .  S
O275       Zr294   2.337   1_655  S
O275       Zr296   2.344       .  S
H276        O277   0.967       .  S
O277       Zr295   2.335       .  S
O277       Zr297   2.345       .  S
O278       Zr294   2.424       .  S
O278        C301   1.290       .  A
O279       Zr295   2.432       .  S
O279        C302   1.291       .  A
O280       Zr296   2.424   1_455  S
O280        C303   1.290       .  A
O281       Zr297   2.441   1_455  S
O281        C304   1.293       .  A
O282       Zr297   2.443       .  S
O282        C305   1.293       .  A
O283       Zr296   2.439       .  S
O283        C306   1.293       .  A
O284       Zr298   2.436       .  S
O284        C307   1.292       .  A
O285       Zr298   2.426       .  S
O285        C308   1.291       .  A
O286       Zr296   2.430   1_455  S
O286        C307   1.291       .  A
O287       Zr297   2.439   1_455  S
O287        C308   1.293       .  A
O288       Zr294   2.448       .  S
O288        C303   1.294       .  A
O289       Zr295   2.434       .  S
O289        C306   1.292       .  A
O290       Zr295   2.444       .  S
O290        C305   1.293       .  A
O291       Zr294   2.435       .  S
O291        C304   1.292       .  A
O292       Zr298   2.437       .  S
O292        C301   1.292       .  A
O293       Zr298   2.433       .  S
O293        C302   1.292   1_455  A
Zr294       O300   2.336       .  S
Zr294       O312   2.338       .  S
Zr295       O299   2.333       .  S
Zr295       O310   2.335       .  S
Zr296       O300   2.338   1_655  S
Zr296       O310   2.346       .  S
Zr297       O299   2.333       .  S
Zr297       O312   2.350   1_655  S
Zr298       O299   2.341   1_455  S
Zr298       O300   2.337       .  S
Zr298       O312   2.338       .  S
Zr298       O310   2.336   1_455  S
C301       C1894   1.478       .  S
C302       C1445   1.476       .  S
C303       C1574   1.474       .  S
C304       C1525   1.478       .  S
C305       C1485   1.479       .  S
C306       C1614   1.473       .  S
C307       C1625   1.474       .  S
C308       C1545   1.472       .  S
H309        O310   0.966       .  S
H311        O312   0.965       .  S
C313        C314   1.544       .  S
C313        C319   1.533       .  S
C313        C317   1.534       .  S
C313       C1405   1.529       .  S
C314        H321   1.080       .  S
C314        C315   1.366       .  D
C315        C316   1.543       .  S
C315       C1514   1.488       .  S
C316        C320   1.543       .  S
C316        C318   1.544       .  S
C316        H322   1.109       .  S
C317        H323   1.085       .  S
C317        C318   1.367       .  D
C318       C1734   1.491       .  S
C319        H324   1.086       .  S
C319        C320   1.367       .  D
C320       C1434   1.487       .  S
C325        C326   1.539       .  S
C325        C331   1.530       .  S
C325        C329   1.536       .  S
C325       C1365   1.524       .  S
C326        H333   1.086       .  S
C326        C327   1.366       .  D
C327        C328   1.540       .  S
C327       C1714   1.483       .  S
C328        C332   1.547       .  S
C328        C330   1.547       .  S
C328        H334   1.109       .  S
C329        H335   1.079       .  S
C329        C330   1.367       .  D
C330       C1534   1.489       .  S
C331        H336   1.087       .  S
C331        C332   1.362       .  D
C332       C1385   1.483       .  S
C337        C338   1.539   1_545  S
C337        C343   1.537       .  S
C337        C341   1.530       .  S
C337       C2154   1.524       .  S
C338        H345   1.083       .  S
C338        C339   1.366       .  D
C339        C340   1.543   1_565  S
C339       C1785   1.488       .  S
C340        C344   1.536       .  S
C340        C342   1.542       .  S
C340        H346   1.107       .  S
C341        H347   1.086       .  S
C341        C342   1.367       .  D
C342       C1605   1.484       .  S
C343        H348   1.086       .  S
C343        C344   1.366       .  D
C344       C1345   1.481       .  S
C349        C350   1.537       .  S
C349        C355   1.531   1_545  S
C349        C353   1.545   1_545  S
C349       C2434   1.529       .  S
C350        H357   1.086       .  S
C350        C351   1.368       .  D
C351        C352   1.542       .  S
C351       C1594   1.488       .  S
C352        C356   1.545   1_545  S
C352        C354   1.543   1_545  S
C352        H358   1.108       .  S
C353        H359   1.080       .  S
C353        C354   1.371       .  D
C354       C1814   1.492       .  S
C355        H360   1.087       .  S
C355        C356   1.362       .  D
C356       C1325   1.486       .  S
C361        C362   1.543       .  S
C361        C367   1.526       .  S
C361        C365   1.545       .  S
C361       C1285   1.529       .  S
C362        H369   1.082       .  S
C362        C363   1.367       .  D
C363        C364   1.534       .  S
C363       C1754   1.475       .  S
C364        C368   1.536       .  S
C364        C366   1.545       .  S
C364        H370   1.107       .  S
C365        H371   1.084       .  S
C365        C366   1.376       .  D
C366       C1494   1.501       .  S
C367        H372   1.087       .  S
C367        C368   1.357       .  D
C368       C1305   1.470       .  S
C373        C374   1.541       .  S
C373        C379   1.532       .  S
C373        C377   1.537       .  S
C373       C1245   1.525       .  S
C374        H381   1.077       .  S
C374        C375   1.365       .  D
C375        C376   1.541       .  S
C375       C1554   1.486       .  S
C376        C380   1.538       .  S
C376        C378   1.542       .  S
C376        H382   1.108       .  S
C377        H383   1.086       .  S
C377        C378   1.368       .  D
C378       C1685   1.486       .  S
C379        H384   1.086       .  S
C379        C380   1.365       .  D
C380       C1265   1.481       .  S
C385        C386   1.542       .  S
C385        C391   1.524       .  S
C385        C389   1.536   1_545  S
C385       C2125   1.529       .  S
C386        H393   1.078       .  S
C386        C387   1.373       .  D
C387        C388   1.549       .  S
C387       C1634   1.497       .  S
C388        C392   1.547       .  S
C388        C390   1.550   1_545  S
C388        H394   1.102       .  S
C389        H395   1.084       .  S
C389        C390   1.374       .  D
C390       C1774   1.510       .  S
C391        H396   1.087       .  S
C391        C392   1.358       .  D
C392       C1225   1.485       .  S
C397        C398   1.543   1_545  S
C397        C403   1.532       .  S
C397        C401   1.537       .  S
C397       C2414   1.525       .  S
C398        H405   1.081       .  S
C398        C399   1.368       .  D
C399        C400   1.539   1_565  S
C399       C1825   1.489       .  S
C400        C404   1.535       .  S
C400        C402   1.542       .  S
C400        H406   1.108       .  S
C401        H407   1.085       .  S
C401        C402   1.370       .  D
C402       C1565   1.486       .  S
C403        H408   1.087       .  S
C403        C404   1.362       .  D
C404       C1205   1.478       .  S
O409       Zr445   2.443       .  S
O409        C420   1.293       .  A
O410       Zr444   2.453       .  S
O410        C421   1.295       .  A
O411       Zr417   2.433       .  S
O411        C422   1.292       .  A
O412       Zr417   2.430       .  S
O412        C423   1.292       .  A
O413       Zr447   2.425   1_554  S
O413        C423   1.291       .  A
O414       Zr446   2.439   1_554  S
O414        C422   1.292       .  A
O415       Zr417   2.441       .  S
O415        C421   1.293       .  A
O416       Zr417   2.448       .  S
O416        C420   1.295   1_554  A
Zr417       O418   2.341       .  S
Zr417       O419   2.337   1_554  S
Zr417       O427   2.337   1_554  S
Zr417       O425   2.341       .  S
O418       Zr444   2.343       .  S
O418       Zr447   2.344   1_554  S
O419       Zr445   2.340       .  S
O419       Zr446   2.336       .  S
C420       C2054   1.491       .  S
C421       C1294   1.488       .  S
C422       C1065   1.474       .  S
C423       C1185   1.471       .  S
H424        O425   0.967       .  S
O425       Zr444   2.340       .  S
O425       Zr446   2.348   1_554  S
H426        O427   0.965       .  S
O427       Zr445   2.328       .  S
O427       Zr447   2.340       .  S
O428       Zr444   2.453       .  S
O428        C451   1.296   1_554  A
O429       Zr445   2.432       .  S
O429        C452   1.292       .  A
O430       Zr446   2.434   1_554  S
O430        C453   1.292       .  A
O431       Zr447   2.432   1_554  S
O431        C454   1.292       .  A
O432       Zr447   2.462       .  S
O432        C455   1.297       .  A
O433       Zr446   2.428       .  S
O433        C456   1.291       .  A
O434       Zr448   2.445       .  S
O434        C457   1.293       .  A
O435       Zr448   2.444       .  S
O435        C458   1.294       .  A
O436       Zr446   2.450       .  S
O436        C457   1.294       .  A
O437       Zr447   2.433       .  S
O437        C458   1.292       .  A
O438       Zr444   2.446       .  S
O438        C453   1.295       .  A
O439       Zr445   2.431       .  S
O439        C456   1.292       .  A
O440       Zr445   2.446       .  S
O440        C455   1.294       .  A
O441       Zr444   2.436       .  S
O441        C454   1.292       .  A
O442       Zr448   2.443       .  S
O442        C451   1.294       .  A
O443       Zr448   2.447       .  S
O443        C452   1.295       .  A
Zr444       O450   2.337   1_554  S
Zr444       O462   2.347   1_554  S
Zr445       O449   2.344       .  S
Zr445       O460   2.345       .  S
Zr446       O450   2.329       .  S
Zr446       O460   2.344       .  S
Zr447       O449   2.336       .  S
Zr447       O462   2.351       .  S
Zr448       O449   2.349       .  S
Zr448       O450   2.338       .  S
Zr448       O462   2.342       .  S
Zr448       O460   2.339       .  S
C451       C1934   1.492       .  S
C452       C1414   1.485       .  S
C453       C1045   1.483       .  S
C454       C1125   1.470       .  S
C455       C1174   1.493       .  S
C456       C1085   1.477       .  S
C457       C1105   1.481       .  S
C458       C1145   1.480       .  S
H459        O460   0.965       .  S
H461        O462   0.967       .  S
O463       Zr499   2.433       .  S
O463        C474   1.291       .  A
O464       Zr498   2.448       .  S
O464        C475   1.295       .  A
O465       Zr471   2.430       .  S
O465        C476   1.291       .  A
O466       Zr471   2.440       .  S
O466        C477   1.293       .  A
O467       Zr501   2.451   1_554  S
O467        C477   1.295       .  A
O468       Zr500   2.445   1_554  S
O468        C476   1.294       .  A
O469       Zr471   2.412       .  S
O469        C475   1.288       .  A
O470       Zr471   2.436       .  S
O470        C474   1.292   1_554  A
Zr471       O472   2.336       .  S
Zr471       O473   2.332   1_554  S
Zr471       O481   2.333   1_554  S
Zr471       O479   2.348       .  S
O472       Zr498   2.344       .  S
O472       Zr501   2.340   1_554  S
O473       Zr499   2.326       .  S
O473       Zr500   2.341       .  S
C474       C2085   1.480       .  S
C475       C1254   1.474       .  S
C476        C925   1.481       .  S
C477       C1014   1.490       .  S
H478        O479   0.966       .  S
O479       Zr498   2.342       .  S
O479       Zr500   2.334   1_554  S
H480        O481   0.964       .  S
O481       Zr499   2.342       .  S
O481       Zr501   2.336       .  S
O482       Zr498   2.453       .  S
O482        C505   1.296   1_554  A
O483       Zr499   2.425       .  S
O483        C506   1.290       .  A
O484       Zr500   2.440   1_554  S
O484        C507   1.293       .  A
O485       Zr501   2.445   1_554  S
O485        C508   1.295       .  A
O486       Zr501   2.439       .  S
O486        C509   1.293       .  A
O487       Zr500   2.438       .  S
O487        C510   1.293       .  A
O488       Zr502   2.426       .  S
O488        C511   1.291       .  A
O489       Zr502   2.444       .  S
O489        C512   1.293       .  A
O490       Zr500   2.439       .  S
O490        C511   1.293       .  A
O491       Zr501   2.445       .  S
O491        C512   1.294       .  A
O492       Zr498   2.455       .  S
O492        C507   1.296       .  A
O493       Zr499   2.426       .  S
O493        C510   1.290       .  A
O494       Zr499   2.405       .  S
O494        C509   1.287       .  A
O495       Zr498   2.438       .  S
O495        C508   1.293       .  A
O496       Zr502   2.431       .  S
O496        C505   1.292       .  A
O497       Zr502   2.446       .  S
O497        C506   1.294       .  A
Zr498       O504   2.339   1_554  S
Zr498       O516   2.346   1_554  S
Zr499       O503   2.338       .  S
Zr499       O514   2.337       .  S
Zr500       O504   2.346       .  S
Zr500       O514   2.337       .  S
Zr501       O503   2.340       .  S
Zr501       O516   2.332       .  S
Zr502       O503   2.330       .  S
Zr502       O504   2.345       .  S
Zr502       O516   2.340       .  S
Zr502       O514   2.346       .  S
C505       C1974   1.486       .  S
C506       C1374   1.482       .  S
C507        C914   1.487       .  S
C508       C1025   1.482       .  S
C509        C994   1.465       .  S
C510        C954   1.480       .  S
C511        C894   1.475       .  S
C512        C965   1.483       .  S
H513        O514   0.965       .  S
H515        O516   0.966       .  S
C517        C518   1.537   1_655  S
C517        C523   1.532   1_655  S
C517        C521   1.541       .  S
C517       C1674   1.527       .  S
C518        H525   1.086       .  S
C518        C519   1.367       .  D
C519        C520   1.540       .  S
C519        C945   1.476       .  S
C520        C524   1.541       .  S
C520        C522   1.549   1_455  S
C520        H526   1.110       .  S
C521        H527   1.079       .  S
C521        C522   1.369       .  D
C522       C1165   1.495       .  S
C523        H528   1.087       .  S
C523        C524   1.360       .  D
C524        C865   1.484       .  S
C529        C530   1.537       .  S
C529        C535   1.534       .  S
C529        C533   1.536   1_655  S
C529       C1474   1.528       .  S
C530        H537   1.077       .  S
C530        C531   1.367       .  D
C531        C532   1.542       .  S
C531       C1154   1.491       .  S
C532        C536   1.535       .  S
C532        C534   1.540   1_655  S
C532        H538   1.106       .  S
C533        H539   1.085       .  S
C533        C534   1.369       .  D
C534        C885   1.487       .  S
C535        H540   1.086   1_655  S
C535        C536   1.366       .  D
C536        C854   1.479   1_655  S
C541        C542   1.535       .  S
C541        C547   1.530       .  S
C541        C545   1.536       .  S
C541       C2554   1.515       .  S
C542        H549   1.081       .  S
C542        C543   1.362       .  D
C543        C544   1.541       .  S
C543        C985   1.473       .  S
C544        C548   1.536       .  S
C544        C546   1.545       .  S
C544        H550   1.109       .  S
C545        H551   1.086       .  S
C545        C546   1.368       .  D
C546       C1094   1.490       .  S
C547        H552   1.087       .  S
C547        C548   1.361       .  D
C548        C825   1.473       .  S
C553        C554   1.542       .  S
C553        C559   1.531       .  S
C553        C557   1.536       .  S
C553       C2245   1.525       .  S
C554        H561   1.080       .  S
C554        C555   1.365       .  D
C555        C556   1.537       .  S
C555       C1074   1.478       .  S
C556        C560   1.544       .  S
C556        C558   1.548       .  S
C556        H562   1.108       .  S
C557        H563   1.085       .  S
C557        C558   1.371       .  D
C558       C1005   1.496       .  S
C559        H564   1.086       .  S
C559        C560   1.363       .  D
C560        C805   1.491       .  S
C565        C566   1.542   1_655  S
C565        C571   1.526       .  S
C565        C569   1.538       .  S
C565       C1454   1.526       .  S
C566        H573   1.082       .  S
C566        C567   1.365       .  D
C567        C568   1.543   1_455  S
C567        C905   1.489       .  S
C568        C572   1.544       .  S
C568        C570   1.542       .  S
C568        H574   1.109       .  S
C569        H575   1.085       .  S
C569        C570   1.372       .  D
C570       C1134   1.486       .  S
C571        H576   1.087       .  S
C571        C572   1.362       .  D
C572        C794   1.483       .  S
C577        C578   1.540       .  S
C577        C583   1.529       .  S
C577        C581   1.541   1_655  S
C577       C1645   1.517       .  S
C578        H585   1.080       .  S
C578        C579   1.358       .  D
C579        C580   1.528       .  S
C579       C1194   1.465       .  S
C580        C584   1.534       .  S
C580        C582   1.541   1_655  S
C580        H586   1.110       .  S
C581        H587   1.086       .  S
C581        C582   1.370       .  D
C582        C934   1.484       .  S
C583        H588   1.086       .  S
C583        C584   1.361       .  D
C584        C765   1.474       .  S
C589        C590   1.546       .  S
C589        C595   1.530       .  S
C589        C593   1.544       .  S
C589       C2534   1.539       .  S
C590        H597   1.081       .  S
C590        C591   1.373       .  D
C591        C592   1.544       .  S
C591       C1114   1.496       .  S
C592        C596   1.540       .  S
C592        C594   1.544       .  S
C592        H598   1.109       .  S
C593        H599   1.085       .  S
C593        C594   1.376       .  D
C594        C974   1.498       .  S
C595        H600   1.087       .  S
C595        C596   1.357       .  D
C596        C754   1.476       .  S
C601        C602   1.542       .  S
C601        C607   1.534       .  S
C601        C605   1.528       .  S
C601       C2225   1.523       .  S
C602        H609   1.086       .  S
C602        C603   1.364       .  D
C603        C604   1.536       .  S
C603       C1034   1.474       .  S
C604        C608   1.539       .  S
C604        C606   1.544       .  S
C604        H610   1.108       .  S
C605        H611   1.084       .  S
C605        C606   1.371       .  D
C606       C1054   1.493       .  S
C607        H612   1.084       .  S
C607        C608   1.363       .  D
C608        C725   1.478       .  S
O613       Zr649   2.473       .  S
O613        C624   1.298       .  A
O614       Zr648   2.445       .  S
O614        C625   1.293       .  A
O615       Zr621   2.440       .  S
O615        C626   1.292       .  A
O616       Zr621   2.475       .  S
O616        C627   1.298       .  A
O617       Zr651   2.407       .  S
O617        C627   1.286       .  A
O618       Zr650   2.435       .  S
O618        C626   1.292       .  A
O619       Zr621   2.425       .  S
O619        C625   1.291       .  A
O620       Zr621   2.413       .  S
O620        C624   1.288       .  A
Zr621       O622   2.336       .  S
Zr621       O623   2.340       .  S
Zr621       O631   2.332       .  S
Zr621       O629   2.346       .  S
O622       Zr648   2.347       .  S
O622       Zr651   2.340       .  S
O623       Zr649   2.334       .  S
O623       Zr650   2.326       .  S
C624       C2394   1.478       .  S
C625        C734   1.473       .  S
C626       C1914   1.480       .  S
C627       C1314   1.465       .  S
H628        O629   0.966       .  S
O629       Zr648   2.349       .  S
O629       Zr650   2.342       .  S
H630        O631   0.965       .  S
O631       Zr649   2.334       .  S
O631       Zr651   2.347       .  S
O632       Zr648   2.473       .  S
O632        C655   1.298       .  A
O633       Zr649   2.448       .  S
O633        C656   1.294       .  A
O634       Zr650   2.447       .  S
O634        C657   1.293       .  A
O635       Zr651   2.479       .  S
O635        C658   1.299       .  A
O636       Zr651   2.457       .  S
O636        C659   1.295       .  A
O637       Zr650   2.447       .  S
O637        C660   1.292       .  A
O638       Zr652   2.471       .  S
O638        C661   1.297       .  A
O639       Zr652   2.458       .  S
O639        C662   1.295       .  A
O640       Zr650   2.405       .  S
O640        C661   1.286       .  A
O641       Zr651   2.430       .  S
O641        C662   1.292       .  A
O642       Zr648   2.429       .  S
O642        C657   1.291       .  A
O643       Zr649   2.426       .  S
O643        C660   1.290       .  A
O644       Zr649   2.425       .  S
O644        C659   1.292       .  A
O645       Zr648   2.420       .  S
O645        C658   1.290       .  A
O646       Zr652   2.406       .  S
O646        C655   1.286       .  A
O647       Zr652   2.427       .  S
O647        C656   1.291       .  A
Zr648       O654   2.330       .  S
Zr648       O666   2.335       .  S
Zr649       O653   2.352       .  S
Zr649       O664   2.341       .  S
Zr650       O654   2.344       .  S
Zr650       O664   2.344       .  S
Zr651       O653   2.352       .  S
Zr651       O666   2.328       .  S
Zr652       O653   2.343       .  S
Zr652       O654   2.339       .  S
Zr652       O666   2.344       .  S
Zr652       O664   2.338       .  S
C655       C1865   1.466       .  S
C656        C834   1.475       .  S
C657       C1274   1.471       .  S
C658        C814   1.495       .  S
C659       C1425   1.473       .  S
C660        C745   1.466       .  S
C661       C1394   1.465       .  S
C662       C2025   1.480       .  S
H663        O664   0.967       .  S
H665        O666   0.965       .  S
O667       Zr703   2.472       .  S
O667        C678   1.297       .  A
O668       Zr702   2.452   1_455  S
O668        C679   1.294       .  A
O669       Zr675   2.482       .  S
O669        C680   1.299       .  A
O670       Zr675   2.461   1_545  S
O670        C681   1.295       .  A
O671       Zr705   2.421       .  S
O671        C681   1.290   1_554  A
O672       Zr704   2.416       .  S
O672        C680   1.289   1_655  A
O673       Zr675   2.424   1_545  S
O673        C679   1.291       .  A
O674       Zr675   2.402       .  S
O674        C678   1.287   1_556  A
Zr675       O676   2.347   1_565  S
Zr675       O677   2.327       .  S
Zr675       O685   2.348   1_566  S
Zr675       O683   2.339   1_455  S
O676       Zr702   2.346   1_455  S
O676       Zr705   2.347   1_556  S
O677       Zr703   2.330   1_556  S
O677       Zr704   2.341   1_455  S
C678       C2114   1.482       .  S
C679       C1214   1.473       .  S
C680        C874   1.490       .  S
C681       C1985   1.475       .  S
H682        O683   0.966       .  S
O683       Zr702   2.348   1_565  S
O683       Zr704   2.342       .  S
H684        O685   0.966       .  S
O685       Zr703   2.333   1_545  S
O685       Zr705   2.338       .  S
O686       Zr702   2.474       .  S
O686        C709   1.298       .  A
O687       Zr703   2.453   1_655  S
O687        C710   1.294       .  A
O688       Zr704   2.475       .  S
O688        C711   1.299       .  A
O689       Zr705   2.459   1_556  S
O689        C712   1.295       .  A
O690       Zr705   2.468       .  S
O690        C713   1.297       .  A
O691       Zr704   2.448   1_554  S
O691        C714   1.293       .  A
O692       Zr706   2.442       .  S
O692        C715   1.292   1_545  A
O693       Zr706   2.463       .  S
O693        C716   1.296       .  A
O694       Zr704   2.442       .  S
O694        C715   1.294   1_556  A
O695       Zr705   2.411       .  S
O695        C716   1.288   1_455  A
O696       Zr702   2.414       .  S
O696        C711   1.289   1_545  A
O697       Zr703   2.411   1_655  S
O697        C714   1.288       .  A
O698       Zr703   2.414   1_545  S
O698        C713   1.289       .  A
O699       Zr702   2.432   1_455  S
O699        C712   1.292       .  A
O700       Zr706   2.400       .  S
O700        C709   1.286   1_554  A
O701       Zr706   2.425       .  S
O701        C710   1.291   1_545  A
Zr702       O708   2.339       .  S
Zr702       O720   2.335       .  S
Zr703       O707   2.338   1_465  S
Zr703       O718   2.353   1_455  S
Zr704       O708   2.331   1_565  S
Zr704       O718   2.353   1_556  S
Zr705       O707   2.336   1_455  S
Zr705       O720   2.339   1_454  S
Zr706       O707   2.332       .  S
Zr706       O708   2.345   1_554  S
Zr706       O720   2.337   1_554  S
Zr706       O718   2.345   1_545  S
C709       C1954   1.477       .  S
C710       C1354   1.478       .  S
C711       C1334   1.491       .  S
C712        C845   1.475       .  S
C713       C1234   1.488       .  S
C714        C774   1.461       .  S
C715       C2065   1.477       .  S
C716        C785   1.483       .  S
H717        O718   0.965       .  S
H719        O720   0.966   1_554  S
C721        C722   1.405       .  A
C721        C726   1.402       .  A
C721        H731   1.083       .  S
C722        C727   1.478       .  S
C722        C723   1.404       .  A
C723        C724   1.391       .  A
C723        H728   1.084       .  S
C724        C725   1.403       .  A
C724        H729   1.084       .  S
C725        C726   1.404       .  A
C726        H730   1.083       .  S
C727        C732   1.404       .  A
C727        C736   1.404       .  A
C732        C733   1.401       .  A
C732        H737   1.083       .  S
C733        C734   1.405       .  A
C733        H738   1.083       .  S
C734        C735   1.403       .  A
C735        C736   1.392       .  A
C735        H739   1.084       .  S
C736        H740   1.084       .  S
C741        C742   1.405       .  A
C741        C746   1.393       .  A
C741        H751   1.083       .  S
C742        C747   1.488       .  S
C742        C743   1.411       .  A
C743        C744   1.401       .  A
C743        H748   1.082       .  S
C744        C745   1.400       .  A
C744        H749   1.083       .  S
C745        C746   1.401       .  A
C746        H750   1.083       .  S
C747        C752   1.410       .  A
C747        C756   1.405       .  A
C752        C753   1.398       .  A
C752        H757   1.082       .  S
C753        C754   1.398       .  A
C753        H758   1.083       .  S
C754        C755   1.405       .  A
C755        C756   1.398       .  A
C755        H759   1.083       .  S
C756        H760   1.083       .  S
C761        C762   1.403       .  A
C761        C766   1.390       .  A
C761        H771   1.083       .  S
C762        C767   1.477       .  S
C762        C763   1.407   1_655  A
C763        C764   1.397       .  A
C763        H768   1.083       .  S
C764        C765   1.402   1_455  A
C764        H769   1.083       .  S
C765        C766   1.403       .  A
C766        H770   1.083       .  S
C767        C772   1.409       .  A
C767        C776   1.402   1_655  A
C772        C773   1.399       .  A
C772        H777   1.083       .  S
C773        C774   1.399       .  A
C773        H778   1.083       .  S
C774        C775   1.402   1_655  A
C775        C776   1.390       .  A
C775        H779   1.084       .  S
C776        H780   1.083       .  S
C781        C782   1.408       .  A
C781        C786   1.406       .  A
C781        H791   1.083       .  S
C782        C787   1.481       .  S
C782        C783   1.400       .  A
C783        C784   1.390       .  A
C783        H788   1.083   1_655  S
C784        C785   1.407       .  A
C784        H789   1.083   1_655  S
C785        C786   1.408       .  A
C786        H790   1.083       .  S
C787        C792   1.409       .  A
C787        C796   1.400       .  A
C792        C793   1.401       .  A
C792        H797   1.083   1_655  S
C793        C794   1.401       .  A
C793        H798   1.083   1_655  S
C794        C795   1.408       .  A
C795        C796   1.397       .  A
C795        H799   1.083       .  S
C796        H800   1.083       .  S
C801        C802   1.410       .  A
C801        C806   1.401       .  A
C801        H811   1.083       .  S
C802        C807   1.494       .  S
C802        C803   1.404       .  A
C803        C804   1.399       .  A
C803        H808   1.083       .  S
C804        C805   1.410       .  A
C804        H809   1.083       .  S
C805        C806   1.402       .  A
C806        H810   1.082       .  S
C807        C812   1.403       .  A
C807        C816   1.410       .  A
C812        C813   1.394       .  A
C812        H817   1.083       .  S
C813        C814   1.410       .  A
C813        H818   1.083       .  S
C814        C815   1.408       .  A
C815        C816   1.408       .  A
C815        H819   1.083       .  S
C816        H820   1.083       .  S
C821        C822   1.407       .  A
C821        C826   1.401       .  A
C821        H831   1.083       .  S
C822        C827   1.479       .  S
C822        C823   1.403       .  A
C823        C824   1.391       .  A
C823        H828   1.083       .  S
C824        C825   1.403       .  A
C824        H829   1.083       .  S
C825        C826   1.402       .  A
C826        H830   1.083       .  S
C827        C832   1.405       .  A
C827        C836   1.404       .  A
C832        C833   1.401       .  A
C832        H837   1.083       .  S
C833        C834   1.406       .  A
C833        H838   1.082       .  S
C834        C835   1.403       .  A
C835        C836   1.392       .  A
C835        H839   1.083       .  S
C836        H840   1.083       .  S
C841        C842   1.407       .  A
C841        C846   1.392       .  A
C841        H851   1.082       .  S
C842        C847   1.493       .  S
C842        C843   1.410       .  A
C843        C844   1.408       .  A
C843        H848   1.083       .  S
C844        C845   1.406       .  A
C844        H849   1.083       .  S
C845        C846   1.399       .  A
C846        H850   1.084       .  S
C847        C852   1.406       .  A
C847        C856   1.411   1_455  A
C852        C853   1.393       .  A
C852        H857   1.083       .  S
C853        C854   1.400       .  A
C853        H858   1.083       .  S
C854        C855   1.404   1_455  A
C855        C856   1.406       .  A
C855        H859   1.083       .  S
C856        H860   1.083       .  S
C861        C862   1.402       .  A
C861        C866   1.399       .  A
C861        H871   1.083       .  S
C862        C867   1.486       .  S
C862        C863   1.410   1_455  A
C863        C864   1.404       .  A
C863        H868   1.083       .  S
C864        C865   1.401   1_655  A
C864        H869   1.083       .  S
C865        C866   1.407       .  A
C866        H870   1.083       .  S
C867        C872   1.409       .  A
C867        C876   1.400   1_455  A
C872        C873   1.410       .  A
C872        H877   1.083       .  S
C873        C874   1.409       .  A
C873        H878   1.083       .  S
C874        C875   1.408   1_455  A
C875        C876   1.394       .  A
C875        H879   1.083       .  S
C876        H880   1.083       .  S
C881        C882   1.402       .  A
C881        C886   1.393       .  A
C881        H891   1.083       .  S
C882        C887   1.477       .  S
C882        C883   1.404       .  A
C883        C884   1.398       .  A
C883        H888   1.083       .  S
C884        C885   1.407       .  A
C884        H889   1.082       .  S
C885        C886   1.407       .  A
C886        H890   1.082       .  S
C887        C892   1.404       .  A
C887        C896   1.403       .  A
C892        C893   1.395       .  A
C892        H897   1.083       .  S
C893        C894   1.406       .  A
C893        H898   1.083       .  S
C894        C895   1.405       .  A
C895        C896   1.396       .  A
C895        H899   1.083       .  S
C896        H900   1.083       .  S
C901        C902   1.412       .  A
C901        C906   1.402       .  A
C901        H911   1.081       .  S
C902        C907   1.507       .  S
C902        C903   1.412       .  A
C903        C904   1.400       .  A
C903        H908   1.081       .  S
C904        C905   1.403       .  A
C904        H909   1.083       .  S
C905        C906   1.403       .  A
C906        H910   1.083       .  S
C907        C912   1.412       .  A
C907        C916   1.412       .  A
C912        C913   1.402       .  A
C912        H917   1.081       .  S
C913        C914   1.405       .  A
C913        H918   1.083       .  S
C914        C915   1.403       .  A
C915        C916   1.400       .  A
C915        H919   1.083       .  S
C916        H920   1.081       .  S
C921        C922   1.406       .  A
C921        C926   1.398       .  A
C921        H931   1.082       .  S
C922        C927   1.491       .  S
C922        C923   1.409       .  A
C923        C924   1.397       .  A
C923        H928   1.082       .  S
C924        C925   1.403       .  A
C924        H929   1.083       .  S
C925        C926   1.407       .  A
C926        H930   1.083       .  S
C927        C932   1.410       .  A
C927        C936   1.405       .  A
C932        C933   1.402       .  A
C932        H937   1.082       .  S
C933        C934   1.405       .  A
C933        H938   1.083       .  S
C934        C935   1.403       .  A
C935        C936   1.393       .  A
C935        H939   1.082       .  S
C936        H940   1.082       .  S
C941        C942   1.403       .  A
C941        C946   1.398       .  A
C941        H951   1.083       .  S
C942        C947   1.472       .  S
C942        C943   1.402       .  A
C943        C944   1.396       .  A
C943        H948   1.083       .  S
C944        C945   1.403       .  A
C944        H949   1.083       .  S
C945        C946   1.403       .  A
C946        H950   1.083       .  S
C947        C952   1.401       .  A
C947        C956   1.402       .  A
C952        C953   1.397       .  A
C952        H957   1.083       .  S
C953        C954   1.408       .  A
C953        H958   1.083       .  S
C954        C955   1.406       .  A
C955        C956   1.396       .  A
C955        H959   1.083       .  S
C956        H960   1.083       .  S
C961        C962   1.406       .  A
C961        C966   1.402       .  A
C961        H971   1.083       .  S
C962        C967   1.486       .  S
C962        C963   1.404       .  A
C963        C964   1.400       .  A
C963        H968   1.083       .  S
C964        C965   1.406       .  A
C964        H969   1.083       .  S
C965        C966   1.406       .  A
C966        H970   1.083       .  S
C967        C972   1.403       .  A
C967        C976   1.405       .  A
C972        C973   1.400       .  A
C972        H977   1.083       .  S
C973        C974   1.408       .  A
C973        H978   1.082       .  S
C974        C975   1.409       .  A
C975        C976   1.403       .  A
C975        H979   1.082       .  S
C976        H980   1.083       .  S
C981        C982   1.406       .  A
C981        C986   1.396       .  A
C981        H991   1.083       .  S
C982        C987   1.479       .  S
C982        C983   1.405       .  A
C983        C984   1.390       .  A
C983        H988   1.082       .  S
C984        C985   1.397       .  A
C984        H989   1.076       .  S
C985        C986   1.404       .  A
C986        H990   1.083       .  S
C987        C992   1.406       .  A
C987        C996   1.405       .  A
C992        C993   1.394       .  A
C992        H997   1.083       .  S
C993        C994   1.404       .  A
C993        H998   1.084       .  S
C994        C995   1.400       .  A
C995        C996   1.390       .  A
C995        H999   1.083       .  S
C996       H1000   1.082       .  S
C1001      C1002   1.410       .  A
C1001      C1006   1.400       .  A
C1001      H1011   1.081       .  S
C1002      C1007   1.503       .  S
C1002      C1003   1.409       .  A
C1003      C1004   1.401       .  A
C1003      H1008   1.081       .  S
C1004      C1005   1.406       .  A
C1004      H1009   1.081       .  S
C1005      C1006   1.406       .  A
C1006      H1010   1.082       .  S
C1007      C1012   1.409       .  A
C1007      C1016   1.412       .  A
C1012      C1013   1.398       .  A
C1012      H1017   1.081       .  S
C1013      C1014   1.406       .  A
C1013      H1018   1.083       .  S
C1014      C1015   1.406       .  A
C1015      C1016   1.403       .  A
C1015      H1019   1.083       .  S
C1016      H1020   1.081       .  S
C1021      C1022   1.408       .  A
C1021      C1026   1.396       .  A
C1021      H1031   1.082       .  S
C1022      C1027   1.492       .  S
C1022      C1023   1.408       .  A
C1023      C1024   1.400       .  A
C1023      H1028   1.082       .  S
C1024      C1025   1.406       .  A
C1024      H1029   1.083       .  S
C1025      C1026   1.404       .  A
C1026      H1030   1.083       .  S
C1027      C1032   1.408       .  A
C1027      C1036   1.411       .  A
C1032      C1033   1.394       .  A
C1032      H1037   1.082       .  S
C1033      C1034   1.399       .  A
C1033      H1038   1.084       .  S
C1034      C1035   1.402       .  A
C1035      C1036   1.401       .  A
C1035      H1039   1.083       .  S
C1036      H1040   1.082       .  S
C1041      C1042   1.401       .  A
C1041      C1046   1.398       .  A
C1041      H1051   1.083       .  S
C1042      C1047   1.475       .  S
C1042      C1043   1.403       .  A
C1043      C1044   1.396       .  A
C1043      H1048   1.083       .  S
C1044      C1045   1.406       .  A
C1044      H1049   1.083       .  S
C1045      C1046   1.409       .  A
C1046      H1050   1.083       .  S
C1047      C1052   1.404       .  A
C1047      C1056   1.398       .  A
C1052      C1053   1.402       .  A
C1052      H1057   1.083       .  S
C1053      C1054   1.409       .  A
C1053      H1058   1.081       .  S
C1054      C1055   1.409       .  A
C1055      C1056   1.390       .  A
C1055      H1059   1.080       .  S
C1056      H1060   1.083       .  S
C1061      C1062   1.404       .  A
C1061      C1066   1.397       .  A
C1061      H1071   1.083       .  S
C1062      C1067   1.478       .  S
C1062      C1063   1.404       .  A
C1063      C1064   1.396       .  A
C1063      H1068   1.083       .  S
C1064      C1065   1.405       .  A
C1064      H1069   1.083       .  S
C1065      C1066   1.404       .  A
C1066      H1070   1.083       .  S
C1067      C1072   1.404       .  A
C1067      C1076   1.404       .  A
C1072      C1073   1.396       .  A
C1072      H1077   1.083       .  S
C1073      C1074   1.402       .  A
C1073      H1078   1.083       .  S
C1074      C1075   1.406       .  A
C1075      C1076   1.396       .  A
C1075      H1079   1.083       .  S
C1076      H1080   1.083       .  S
C1081      C1082   1.405       .  A
C1081      C1086   1.394       .  A
C1081      H1091   1.083       .  S
C1082      C1087   1.483       .  S
C1082      C1083   1.405       .  A
C1083      C1084   1.397       .  A
C1083      H1088   1.083       .  S
C1084      C1085   1.406       .  A
C1084      H1089   1.083       .  S
C1085      C1086   1.405       .  A
C1086      H1090   1.083       .  S
C1087      C1092   1.403       .  A
C1087      C1096   1.405       .  A
C1092      C1093   1.393       .  A
C1092      H1097   1.083       .  S
C1093      C1094   1.403       .  A
C1093      H1098   1.076       .  S
C1094      C1095   1.409       .  A
C1095      C1096   1.399       .  A
C1095      H1099   1.082       .  S
C1096      H1100   1.083       .  S
C1101      C1102   1.409       .  A
C1101      C1106   1.402       .  A
C1101      H1111   1.082       .  S
C1102      C1107   1.500       .  S
C1102      C1103   1.411       .  A
C1103      C1104   1.402       .  A
C1103      H1108   1.082       .  S
C1104      C1105   1.404       .  A
C1104      H1109   1.084       .  S
C1105      C1106   1.404       .  A
C1106      H1110   1.083       .  S
C1107      C1112   1.410       .  A
C1107      C1116   1.408       .  A
C1112      C1113   1.404       .  A
C1112      H1117   1.082       .  S
C1113      C1114   1.407       .  A
C1113      H1118   1.083       .  S
C1114      C1115   1.406       .  A
C1115      C1116   1.400       .  A
C1115      H1119   1.083       .  S
C1116      H1120   1.082       .  S
C1121      C1122   1.405       .  A
C1121      C1126   1.397       .  A
C1121      H1131   1.083       .  S
C1122      C1127   1.477       .  S
C1122      C1123   1.403       .  A
C1123      C1124   1.396       .  A
C1123      H1128   1.083       .  S
C1124      C1125   1.405       .  A
C1124      H1129   1.084       .  S
C1125      C1126   1.403       .  A
C1126      H1130   1.083       .  S
C1127      C1132   1.401       .  A
C1127      C1136   1.404       .  A
C1132      C1133   1.394       .  A
C1132      H1137   1.083       .  S
C1133      C1134   1.406       .  A
C1133      H1138   1.082       .  S
C1134      C1135   1.407       .  A
C1135      C1136   1.399       .  A
C1135      H1139   1.082       .  S
C1136      H1140   1.083       .  S
C1141      C1142   1.403       .  A
C1141      C1146   1.397       .  A
C1141      H1151   1.083       .  S
C1142      C1147   1.478       .  S
C1142      C1143   1.404       .  A
C1143      C1144   1.395       .  A
C1143      H1148   1.083       .  S
C1144      C1145   1.405       .  A
C1144      H1149   1.083       .  S
C1145      C1146   1.408       .  A
C1146      H1150   1.083       .  S
C1147      C1152   1.399       .  A
C1147      C1156   1.405       .  A
C1152      C1153   1.390       .  A
C1152      H1157   1.083       .  S
C1153      C1154   1.410       .  A
C1153      H1158   1.080       .  S
C1154      C1155   1.406       .  A
C1155      C1156   1.399       .  A
C1155      H1159   1.081       .  S
C1156      H1160   1.083       .  S
C1161      C1162   1.409       .  A
C1161      C1166   1.403       .  A
C1161      H1171   1.082       .  S
C1162      C1167   1.498       .  S
C1162      C1163   1.407       .  A
C1163      C1164   1.399       .  A
C1163      H1168   1.082       .  S
C1164      C1165   1.408       .  A
C1164      H1169   1.082       .  S
C1165      C1166   1.405       .  A
C1166      H1170   1.082       .  S
C1167      C1172   1.409       .  A
C1167      C1176   1.408       .  A
C1172      C1173   1.404       .  A
C1172      H1177   1.082       .  S
C1173      C1174   1.406       .  A
C1173      H1178   1.083       .  S
C1174      C1175   1.408       .  A
C1175      C1176   1.400       .  A
C1175      H1179   1.083       .  S
C1176      H1180   1.083       .  S
C1181      C1182   1.401       .  A
C1181      C1186   1.393       .  A
C1181      H1191   1.083       .  S
C1182      C1187   1.466       .  S
C1182      C1183   1.401       .  A
C1183      C1184   1.393       .  A
C1183      H1188   1.083       .  S
C1184      C1185   1.406       .  A
C1184      H1189   1.083       .  S
C1185      C1186   1.405       .  A
C1186      H1190   1.083       .  S
C1187      C1192   1.401       .  A
C1187      C1196   1.404       .  A
C1192      C1193   1.391       .  A
C1192      H1197   1.083       .  S
C1193      C1194   1.402       .  A
C1193      H1198   1.083       .  S
C1194      C1195   1.400       .  A
C1195      C1196   1.396       .  A
C1195      H1199   1.083       .  S
C1196      H1200   1.083       .  S
C1201      C1202   1.407       .  A
C1201      C1206   1.401       .  A
C1201      H1211   1.083       .  S
C1202      C1207   1.484       .  S
C1202      C1203   1.405       .  A
C1203      C1204   1.393       .  A
C1203      H1208   1.083       .  S
C1204      C1205   1.404       .  A
C1204      H1209   1.083       .  S
C1205      C1206   1.401       .  A
C1206      H1210   1.083   1_545  S
C1207      C1212   1.407       .  A
C1207      C1216   1.405       .  A
C1212      C1213   1.403       .  A
C1212      H1217   1.083       .  S
C1213      C1214   1.405       .  A
C1213      H1218   1.083       .  S
C1214      C1215   1.402       .  A
C1215      C1216   1.392       .  A
C1215      H1219   1.084       .  S
C1216      H1220   1.083       .  S
C1221      C1222   1.402       .  A
C1221      C1226   1.397       .  A
C1221      H1231   1.083       .  S
C1222      C1227   1.490       .  S
C1222      C1223   1.412       .  A
C1223      C1224   1.403       .  A
C1223      H1228   1.083   1_545  S
C1224      C1225   1.400       .  A
C1224      H1229   1.083   1_545  S
C1225      C1226   1.408       .  A
C1226      H1230   1.083       .  S
C1227      C1232   1.411       .  A
C1227      C1236   1.402       .  A
C1232      C1233   1.407       .  A
C1232      H1237   1.083       .  S
C1233      C1234   1.407       .  A
C1233      H1238   1.083       .  S
C1234      C1235   1.408       .  A
C1235      C1236   1.392       .  A
C1235      H1239   1.083   1_545  S
C1236      H1240   1.083   1_545  S
C1241      C1242   1.399       .  A
C1241      C1246   1.389       .  A
C1241      H1251   1.083       .  S
C1242      C1247   1.476       .  S
C1242      C1243   1.403       .  A
C1243      C1244   1.398       .  A
C1243      H1248   1.083       .  S
C1244      C1245   1.410       .  A
C1244      H1249   1.083       .  S
C1245      C1246   1.411       .  A
C1246      H1250   1.075       .  S
C1247      C1252   1.405       .  A
C1247      C1256   1.402       .  A
C1252      C1253   1.393       .  A
C1252      H1257   1.083       .  S
C1253      C1254   1.402       .  A
C1253      H1258   1.083       .  S
C1254      C1255   1.408       .  A
C1255      C1256   1.395       .  A
C1255      H1259   1.083       .  S
C1256      H1260   1.083       .  S
C1261      C1262   1.404       .  A
C1261      C1266   1.396       .  A
C1261      H1271   1.083       .  S
C1262      C1267   1.484       .  S
C1262      C1263   1.407       .  A
C1263      C1264   1.400       .  A
C1263      H1268   1.083       .  S
C1264      C1265   1.402       .  A
C1264      H1269   1.081       .  S
C1265      C1266   1.405       .  A
C1266      H1270   1.083       .  S
C1267      C1272   1.409       .  A
C1267      C1276   1.404       .  A
C1272      C1273   1.403       .  A
C1272      H1277   1.083       .  S
C1273      C1274   1.403       .  A
C1273      H1278   1.083       .  S
C1274      C1275   1.402       .  A
C1275      C1276   1.394       .  A
C1275      H1279   1.084       .  S
C1276      H1280   1.083       .  S
C1281      C1282   1.407       .  A
C1281      C1286   1.403       .  A
C1281      H1291   1.083       .  S
C1282      C1287   1.490       .  S
C1282      C1283   1.403       .  A
C1283      C1284   1.395       .  A
C1283      H1288   1.083       .  S
C1284      C1285   1.408       .  A
C1284      H1289   1.083       .  S
C1285      C1286   1.411       .  A
C1286      H1290   1.078       .  S
C1287      C1292   1.406       .  A
C1287      C1296   1.407       .  A
C1292      C1293   1.401       .  A
C1292      H1297   1.083       .  S
C1293      C1294   1.408       .  A
C1293      H1298   1.083       .  S
C1294      C1295   1.406       .  A
C1295      C1296   1.399       .  A
C1295      H1299   1.083       .  S
C1296      H1300   1.083       .  S
C1301      C1302   1.409       .  A
C1301      C1306   1.400       .  A
C1301      H1311   1.083       .  S
C1302      C1307   1.477       .  S
C1302      C1303   1.400       .  A
C1303      C1304   1.393       .  A
C1303      H1308   1.083       .  S
C1304      C1305   1.404       .  A
C1304      H1309   1.084       .  S
C1305      C1306   1.399       .  A
C1306      H1310   1.083       .  S
C1307      C1312   1.400       .  A
C1307      C1316   1.409       .  A
C1312      C1313   1.393       .  A
C1312      H1317   1.083       .  S
C1313      C1314   1.404       .  A
C1313      H1318   1.084       .  S
C1314      C1315   1.401       .  A
C1315      C1316   1.403       .  A
C1315      H1319   1.083       .  S
C1316      H1320   1.083       .  S
C1321      C1322   1.413   1_545  A
C1321      C1326   1.403       .  A
C1321      H1331   1.083       .  S
C1322      C1327   1.495       .  S
C1322      C1323   1.404       .  A
C1323      C1324   1.398       .  A
C1323      H1328   1.082       .  S
C1324      C1325   1.407       .  A
C1324      H1329   1.083       .  S
C1325      C1326   1.401   1_565  A
C1326      H1330   1.083       .  S
C1327      C1332   1.412       .  A
C1327      C1336   1.403   1_565  A
C1332      C1333   1.408       .  A
C1332      H1337   1.082       .  S
C1333      C1334   1.407       .  A
C1333      H1338   1.083       .  S
C1334      C1335   1.409   1_565  A
C1335      C1336   1.393       .  A
C1335      H1339   1.083       .  S
C1336      H1340   1.082       .  S
C1341      C1342   1.406   1_565  A
C1341      C1346   1.405       .  A
C1341      H1351   1.083       .  S
C1342      C1347   1.485   1_545  S
C1342      C1343   1.405       .  A
C1343      C1344   1.392       .  A
C1343      H1348   1.083       .  S
C1344      C1345   1.400       .  A
C1344      H1349   1.083       .  S
C1345      C1346   1.406   1_545  A
C1346      H1350   1.081       .  S
C1347      C1352   1.407       .  A
C1347      C1356   1.404       .  A
C1352      C1353   1.407       .  A
C1352      H1357   1.083       .  S
C1353      C1354   1.408       .  A
C1353      H1358   1.083       .  S
C1354      C1355   1.402       .  A
C1355      C1356   1.390       .  A
C1355      H1359   1.084       .  S
C1356      H1360   1.083   1_565  S
C1361      C1362   1.403       .  A
C1361      C1366   1.394       .  A
C1361      H1371   1.082       .  S
C1362      C1367   1.482       .  S
C1362      C1363   1.404       .  A
C1363      C1364   1.396       .  A
C1363      H1368   1.083       .  S
C1364      C1365   1.411       .  A
C1364      H1369   1.076       .  S
C1365      C1366   1.407       .  A
C1366      H1370   1.083       .  S
C1367      C1372   1.406       .  A
C1367      C1376   1.404       .  A
C1372      C1373   1.396       .  A
C1372      H1377   1.083       .  S
C1373      C1374   1.405       .  A
C1373      H1378   1.083       .  S
C1374      C1375   1.408       .  A
C1375      C1376   1.395       .  A
C1375      H1379   1.083       .  S
C1376      H1380   1.083       .  S
C1381      C1382   1.407       .  A
C1381      C1386   1.403       .  A
C1381      H1391   1.083       .  S
C1382      C1387   1.490       .  S
C1382      C1383   1.407       .  A
C1383      C1384   1.398       .  A
C1383      H1388   1.083       .  S
C1384      C1385   1.405       .  A
C1384      H1389   1.083       .  S
C1385      C1386   1.403       .  A
C1386      H1390   1.083       .  S
C1387      C1392   1.406       .  A
C1387      C1396   1.409       .  A
C1392      C1393   1.400       .  A
C1392      H1397   1.083       .  S
C1393      C1394   1.403       .  A
C1393      H1398   1.084       .  S
C1394      C1395   1.401       .  A
C1395      C1396   1.400       .  A
C1395      H1399   1.084       .  S
C1396      H1400   1.083       .  S
C1401      C1402   1.405       .  A
C1401      C1406   1.395       .  A
C1401      H1411   1.083       .  S
C1402      C1407   1.489       .  S
C1402      C1403   1.404       .  A
C1403      C1404   1.399       .  A
C1403      H1408   1.082       .  S
C1404      C1405   1.410       .  A
C1404      H1409   1.083       .  S
C1405      C1406   1.409       .  A
C1406      H1410   1.076       .  S
C1407      C1412   1.407       .  A
C1407      C1416   1.406       .  A
C1412      C1413   1.395       .  A
C1412      H1417   1.082       .  S
C1413      C1414   1.404       .  A
C1413      H1418   1.083       .  S
C1414      C1415   1.409       .  A
C1415      C1416   1.400       .  A
C1415      H1419   1.083       .  S
C1416      H1420   1.083       .  S
C1421      C1422   1.411       .  A
C1421      C1426   1.407       .  A
C1421      H1431   1.082       .  S
C1422      C1427   1.491       .  S
C1422      C1423   1.405       .  A
C1423      C1424   1.389       .  A
C1423      H1428   1.083       .  S
C1424      C1425   1.402       .  A
C1424      H1429   1.084       .  S
C1425      C1426   1.404       .  A
C1426      H1430   1.083       .  S
C1427      C1432   1.407       .  A
C1427      C1436   1.408       .  A
C1432      C1433   1.406       .  A
C1432      H1437   1.083       .  S
C1433      C1434   1.407       .  A
C1433      H1438   1.080       .  S
C1434      C1435   1.401       .  A
C1435      C1436   1.392       .  A
C1435      H1439   1.083       .  S
C1436      H1440   1.083       .  S
C1441      C1442   1.405       .  A
C1441      C1446   1.396       .  A
C1441      H1451   1.082       .  S
C1442      C1447   1.489       .  S
C1442      C1443   1.409   1_655  A
C1443      C1444   1.396       .  A
C1443      H1448   1.082       .  S
C1444      C1445   1.402   1_455  A
C1444      H1449   1.083       .  S
C1445      C1446   1.406       .  A
C1446      H1450   1.083       .  S
C1447      C1452   1.407       .  A
C1447      C1456   1.404   1_655  A
C1452      C1453   1.399       .  A
C1452      H1457   1.082       .  S
C1453      C1454   1.409       .  A
C1453      H1458   1.083       .  S
C1454      C1455   1.408   1_655  A
C1455      C1456   1.393       .  A
C1455      H1459   1.077       .  S
C1456      H1460   1.082       .  S
C1461      C1462   1.405   1_455  A
C1461      C1466   1.397       .  A
C1461      H1471   1.083       .  S
C1462      C1467   1.483       .  S
C1462      C1463   1.405       .  A
C1463      C1464   1.394       .  A
C1463      H1468   1.083       .  S
C1464      C1465   1.404       .  A
C1464      H1469   1.083       .  S
C1465      C1466   1.407   1_655  A
C1466      H1470   1.083       .  S
C1467      C1472   1.403   1_655  A
C1467      C1476   1.402       .  A
C1472      C1473   1.398       .  A
C1472      H1477   1.083       .  S
C1473      C1474   1.409   1_455  A
C1473      H1478   1.083       .  S
C1474      C1475   1.411       .  A
C1475      C1476   1.394       .  A
C1475      H1479   1.075       .  S
C1476      H1480   1.083       .  S
C1481      C1482   1.407       .  A
C1481      C1486   1.401       .  A
C1481      H1491   1.083       .  S
C1482      C1487   1.488       .  S
C1482      C1483   1.406       .  A
C1483      C1484   1.398       .  A
C1483      H1488   1.083       .  S
C1484      C1485   1.405       .  A
C1484      H1489   1.083       .  S
C1485      C1486   1.404       .  A
C1486      H1490   1.083       .  S
C1487      C1492   1.405       .  A
C1487      C1496   1.403       .  A
C1492      C1493   1.401       .  A
C1492      H1497   1.083       .  S
C1493      C1494   1.410       .  A
C1493      H1498   1.081       .  S
C1494      C1495   1.409       .  A
C1495      C1496   1.398       .  A
C1495      H1499   1.079       .  S
C1496      H1500   1.083       .  S
C1501      C1502   1.411       .  A
C1501      C1506   1.401       .  A
C1501      H1511   1.081       .  S
C1502      C1507   1.499       .  S
C1502      C1503   1.409       .  A
C1503      C1504   1.397       .  A
C1503      H1508   1.082       .  S
C1504      C1505   1.404       .  A
C1504      H1509   1.083       .  S
C1505      C1506   1.403       .  A
C1506      H1510   1.083       .  S
C1507      C1512   1.409       .  A
C1507      C1516   1.411       .  A
C1512      C1513   1.399       .  A
C1512      H1517   1.082       .  S
C1513      C1514   1.405       .  A
C1513      H1518   1.083       .  S
C1514      C1515   1.402       .  A
C1515      C1516   1.400       .  A
C1515      H1519   1.083       .  S
C1516      H1520   1.082       .  S
C1521      C1522   1.402       .  A
C1521      C1526   1.398       .  A
C1521      H1531   1.083       .  S
C1522      C1527   1.473       .  S
C1522      C1523   1.403       .  A
C1523      C1524   1.396       .  A
C1523      H1528   1.083       .  S
C1524      C1525   1.406       .  A
C1524      H1529   1.083       .  S
C1525      C1526   1.406       .  A
C1526      H1530   1.083       .  S
C1527      C1532   1.404       .  A
C1527      C1536   1.398       .  A
C1532      C1533   1.400       .  A
C1532      H1537   1.083       .  S
C1533      C1534   1.405       .  A
C1533      H1538   1.082       .  S
C1534      C1535   1.410       .  A
C1535      C1536   1.392       .  A
C1535      H1539   1.082       .  S
C1536      H1540   1.084       .  S
C1541      C1542   1.403       .  A
C1541      C1546   1.394       .  A
C1541      H1551   1.083       .  S
C1542      C1547   1.473       .  S
C1542      C1543   1.403       .  A
C1543      C1544   1.395       .  A
C1543      H1548   1.083       .  S
C1544      C1545   1.404       .  A
C1544      H1549   1.083       .  S
C1545      C1546   1.406       .  A
C1546      H1550   1.083       .  S
C1547      C1552   1.403       .  A
C1547      C1556   1.400       .  A
C1552      C1553   1.396       .  A
C1552      H1557   1.083       .  S
C1553      C1554   1.405       .  A
C1553      H1558   1.081       .  S
C1554      C1555   1.409       .  A
C1555      C1556   1.393       .  A
C1555      H1559   1.081       .  S
C1556      H1560   1.083       .  S
C1561      C1562   1.402       .  A
C1561      C1566   1.393       .  A
C1561      H1571   1.083       .  S
C1562      C1567   1.476       .  S
C1562      C1563   1.402       .  A
C1563      C1564   1.398       .  A
C1563      H1568   1.083       .  S
C1564      C1565   1.408       .  A
C1564      H1569   1.082       .  S
C1565      C1566   1.405       .  A
C1566      H1570   1.081       .  S
C1567      C1572   1.402       .  A
C1567      C1576   1.405       .  A
C1572      C1573   1.393       .  A
C1572      H1577   1.083       .  S
C1573      C1574   1.405       .  A
C1573      H1578   1.083       .  S
C1574      C1575   1.405       .  A
C1575      C1576   1.400       .  A
C1575      H1579   1.083       .  S
C1576      H1580   1.083       .  S
C1581      C1582   1.410       .  A
C1581      C1586   1.400       .  A
C1581      H1591   1.081       .  S
C1582      C1587   1.504       .  S
C1582      C1583   1.411       .  A
C1583      C1584   1.405       .  A
C1583      H1588   1.082       .  S
C1584      C1585   1.407       .  A
C1584      H1589   1.083       .  S
C1585      C1586   1.403       .  A
C1586      H1590   1.083       .  S
C1587      C1592   1.411       .  A
C1587      C1596   1.411       .  A
C1592      C1593   1.400       .  A
C1592      H1597   1.081       .  S
C1593      C1594   1.401       .  A
C1593      H1598   1.083       .  S
C1594      C1595   1.405       .  A
C1595      C1596   1.404       .  A
C1595      H1599   1.083       .  S
C1596      H1600   1.082       .  S
C1601      C1602   1.404       .  A
C1601      C1606   1.395       .  A
C1601      H1611   1.083       .  S
C1602      C1607   1.481       .  S
C1602      C1603   1.404       .  A
C1603      C1604   1.397       .  A
C1603      H1608   1.083       .  S
C1604      C1605   1.405       .  A
C1604      H1609   1.082       .  S
C1605      C1606   1.406       .  A
C1606      H1610   1.082       .  S
C1607      C1612   1.404       .  A
C1607      C1616   1.406       .  A
C1612      C1613   1.394       .  A
C1612      H1617   1.083       .  S
C1613      C1614   1.403       .  A
C1613      H1618   1.083       .  S
C1614      C1615   1.405       .  A
C1615      C1616   1.399       .  A
C1615      H1619   1.083       .  S
C1616      H1620   1.083       .  S
C1621      C1622   1.402       .  A
C1621      C1626   1.393       .  A
C1621      H1631   1.083       .  S
C1622      C1627   1.476       .  S
C1622      C1623   1.406       .  A
C1623      C1624   1.399       .  A
C1623      H1628   1.083       .  S
C1624      C1625   1.405       .  A
C1624      H1629   1.083       .  S
C1625      C1626   1.405       .  A
C1626      H1630   1.083       .  S
C1627      C1632   1.400       .  A
C1627      C1636   1.402       .  A
C1632      C1633   1.397       .  A
C1632      H1637   1.083       .  S
C1633      C1634   1.412       .  A
C1633      H1638   1.081       .  S
C1634      C1635   1.408       .  A
C1635      C1636   1.396       .  A
C1635      H1639   1.079       .  S
C1636      H1640   1.083       .  S
C1641      C1642   1.401       .  A
C1641      C1646   1.391       .  A
C1641      H1651   1.083       .  S
C1642      C1647   1.477       .  S
C1642      C1643   1.404   1_655  A
C1643      C1644   1.392       .  A
C1643      H1648   1.083       .  S
C1644      C1645   1.406   1_455  A
C1644      H1649   1.083       .  S
C1645      C1646   1.410       .  A
C1646      H1650   1.075       .  S
C1647      C1652   1.406       .  A
C1647      C1656   1.403   1_655  A
C1652      C1653   1.394       .  A
C1652      H1657   1.083       .  S
C1653      C1654   1.404       .  A
C1653      H1658   1.083       .  S
C1654      C1655   1.408   1_655  A
C1655      C1656   1.392       .  A
C1655      H1659   1.083       .  S
C1656      H1660   1.083       .  S
C1661      C1662   1.408   1_455  A
C1661      C1666   1.397       .  A
C1661      H1671   1.082       .  S
C1662      C1667   1.492       .  S
C1662      C1663   1.408       .  A
C1663      C1664   1.396       .  A
C1663      H1668   1.082       .  S
C1664      C1665   1.406       .  A
C1664      H1669   1.083       .  S
C1665      C1666   1.404   1_655  A
C1666      H1670   1.083       .  S
C1667      C1672   1.406       .  A
C1667      C1676   1.406   1_655  A
C1672      C1673   1.397       .  A
C1672      H1677   1.082       .  S
C1673      C1674   1.409       .  A
C1673      H1678   1.076       .  S
C1674      C1675   1.408   1_655  A
C1675      C1676   1.396       .  A
C1675      H1679   1.083       .  S
C1676      H1680   1.082       .  S
C1681      C1682   1.402       .  A
C1681      C1686   1.397       .  A
C1681      H1691   1.083       .  S
C1682      C1687   1.476       .  S
C1682      C1683   1.403       .  A
C1683      C1684   1.399       .  A
C1683      H1688   1.083       .  S
C1684      C1685   1.405       .  A
C1684      H1689   1.081       .  S
C1685      C1686   1.406       .  A
C1686      H1690   1.082       .  S
C1687      C1692   1.403       .  A
C1687      C1696   1.402       .  A
C1692      C1693   1.397       .  A
C1692      H1697   1.083       .  S
C1693      C1694   1.404       .  A
C1693      H1698   1.083       .  S
C1694      C1695   1.408       .  A
C1695      C1696   1.397       .  A
C1695      H1699   1.083       .  S
C1696      H1700   1.083       .  S
C1701      C1702   1.410       .  A
C1701      C1706   1.400       .  A
C1701      H1711   1.082       .  S
C1702      C1707   1.500       .  S
C1702      C1703   1.410       .  A
C1703      C1704   1.401       .  A
C1703      H1708   1.082       .  S
C1704      C1705   1.405       .  A
C1704      H1709   1.083       .  S
C1705      C1706   1.404       .  A
C1706      H1710   1.083       .  S
C1707      C1712   1.410       .  A
C1707      C1716   1.411       .  A
C1712      C1713   1.399       .  A
C1712      H1717   1.082       .  S
C1713      C1714   1.401       .  A
C1713      H1718   1.083       .  S
C1714      C1715   1.403       .  A
C1715      C1716   1.402       .  A
C1715      H1719   1.083       .  S
C1716      H1720   1.082       .  S
C1721      C1722   1.404       .  A
C1721      C1726   1.398       .  A
C1721      H1731   1.083       .  S
C1722      C1727   1.479       .  S
C1722      C1723   1.403       .  A
C1723      C1724   1.398       .  A
C1723      H1728   1.083       .  S
C1724      C1725   1.406       .  A
C1724      H1729   1.083       .  S
C1725      C1726   1.406       .  A
C1726      H1730   1.083       .  S
C1727      C1732   1.403       .  A
C1727      C1736   1.402       .  A
C1732      C1733   1.398       .  A
C1732      H1737   1.083       .  S
C1733      C1734   1.405       .  A
C1733      H1738   1.079       .  S
C1734      C1735   1.410       .  A
C1735      C1736   1.398       .  A
C1735      H1739   1.082       .  S
C1736      H1740   1.083       .  S
C1741      C1742   1.409       .  A
C1741      C1746   1.394       .  A
C1741      H1751   1.081       .  S
C1742      C1747   1.498       .  S
C1742      C1743   1.410       .  A
C1743      C1744   1.402       .  A
C1743      H1748   1.082       .  S
C1744      C1745   1.407       .  A
C1744      H1749   1.083       .  S
C1745      C1746   1.403       .  A
C1746      H1750   1.083       .  S
C1747      C1752   1.411       .  A
C1747      C1756   1.411       .  A
C1752      C1753   1.396       .  A
C1752      H1757   1.081       .  S
C1753      C1754   1.398       .  A
C1753      H1758   1.083       .  S
C1754      C1755   1.401       .  A
C1755      C1756   1.399       .  A
C1755      H1759   1.084       .  S
C1756      H1760   1.081       .  S
C1761      C1762   1.407       .  A
C1761      C1766   1.400       .  A
C1761      H1771   1.083       .  S
C1762      C1767   1.499       .  S
C1762      C1763   1.408       .  A
C1763      C1764   1.408       .  A
C1763      H1768   1.083       .  S
C1764      C1765   1.411       .  A
C1764      H1769   1.083       .  S
C1765      C1766   1.405       .  A
C1766      H1770   1.083       .  S
C1767      C1772   1.404       .  A
C1767      C1776   1.408       .  A
C1772      C1773   1.398       .  A
C1772      H1777   1.083       .  S
C1773      C1774   1.411       .  A
C1773      H1778   1.080       .  S
C1774      C1775   1.412       .  A
C1775      C1776   1.408       .  A
C1775      H1779   1.080       .  S
C1776      H1780   1.083       .  S
C1781      C1782   1.403       .  A
C1781      C1786   1.394       .  A
C1781      H1791   1.083       .  S
C1782      C1787   1.475       .  S
C1782      C1783   1.401       .  A
C1783      C1784   1.396       .  A
C1783      H1788   1.083       .  S
C1784      C1785   1.410       .  A
C1784      H1789   1.082       .  S
C1785      C1786   1.404       .  A
C1786      H1790   1.079       .  S
C1787      C1792   1.405       .  A
C1787      C1796   1.401       .  A
C1792      C1793   1.400       .  A
C1792      H1797   1.083       .  S
C1793      C1794   1.407       .  A
C1793      H1798   1.083       .  S
C1794      C1795   1.406       .  A
C1795      C1796   1.391       .  A
C1795      H1799   1.083       .  S
C1796      H1800   1.083       .  S
C1801      C1802   1.404       .  A
C1801      C1806   1.398       .  A
C1801      H1811   1.083       .  S
C1802      C1807   1.482       .  S
C1802      C1803   1.406       .  A
C1803      C1804   1.399       .  A
C1803      H1808   1.083       .  S
C1804      C1805   1.404       .  A
C1804      H1809   1.083       .  S
C1805      C1806   1.406       .  A
C1806      H1810   1.083       .  S
C1807      C1812   1.404       .  A
C1807      C1816   1.402       .  A
C1812      C1813   1.400       .  A
C1812      H1817   1.083       .  S
C1813      C1814   1.407       .  A
C1813      H1818   1.081       .  S
C1814      C1815   1.409       .  A
C1815      C1816   1.397       .  A
C1815      H1819   1.082       .  S
C1816      H1820   1.083       .  S
C1821      C1822   1.411       .  A
C1821      C1826   1.398       .  A
C1821      H1831   1.081       .  S
C1822      C1827   1.507       .  S
C1822      C1823   1.413       .  A
C1823      C1824   1.404       .  A
C1823      H1828   1.081       .  S
C1824      C1825   1.404       .  A
C1824      H1829   1.083       .  S
C1825      C1826   1.402       .  A
C1826      H1830   1.083       .  S
C1827      C1832   1.413       .  A
C1827      C1836   1.411       .  A
C1832      C1833   1.400       .  A
C1832      H1837   1.081       .  S
C1833      C1834   1.403       .  A
C1833      H1838   1.083       .  S
C1834      C1835   1.406       .  A
C1835      C1836   1.402       .  A
C1835      H1839   1.083       .  S
C1836      H1840   1.081       .  S
C1841      C1842   1.401       .  A
C1841      C1846   1.392       .  A
C1841      H1851   1.083       .  S
C1842      C1847   1.482       .  S
C1842      C1843   1.406       .  A
C1843      C1844   1.399       .  A
C1843      H1848   1.083       .  S
C1844      C1845   1.409       .  A
C1844      H1849   1.078       .  S
C1845      C1846   1.409       .  A
C1846      H1850   1.083       .  S
C1847      C1852   1.406       .  A
C1847      C1856   1.404       .  A
C1852      C1853   1.396       .  A
C1852      H1857   1.083       .  S
C1853      C1854   1.405       .  A
C1853      H1858   1.083       .  S
C1854      C1855   1.405       .  A
C1855      C1856   1.395       .  A
C1855      H1859   1.083       .  S
C1856      H1860   1.083       .  S
C1861      C1862   1.412       .  A
C1861      C1866   1.401       .  A
C1861      H1871   1.083       .  S
C1862      C1867   1.486       .  S
C1862      C1863   1.403       .  A
C1863      C1864   1.395       .  A
C1863      H1868   1.083       .  S
C1864      C1865   1.404       .  A
C1864      H1869   1.084       .  S
C1865      C1866   1.398       .  A
C1866      H1870   1.083       .  S
C1867      C1872   1.402       .  A
C1867      C1876   1.411       .  A
C1872      C1873   1.393       .  A
C1872      H1877   1.083       .  S
C1873      C1874   1.406       .  A
C1873      H1878   1.083       .  S
C1874      C1875   1.400       .  A
C1875      C1876   1.402       .  A
C1875      H1879   1.083       .  S
C1876      H1880   1.083       .  S
C1881      C1882   1.403       .  A
C1881      C1886   1.395       .  A
C1881      H1891   1.083       .  S
C1882      C1887   1.482       .  S
C1882      C1883   1.403       .  A
C1883      C1884   1.396       .  A
C1883      H1888   1.083       .  S
C1884      C1885   1.410       .  A
C1884      H1889   1.077       .  S
C1885      C1886   1.408       .  A
C1886      H1890   1.083       .  S
C1887      C1892   1.403       .  A
C1887      C1896   1.407       .  A
C1892      C1893   1.393       .  A
C1892      H1897   1.083       .  S
C1893      C1894   1.406       .  A
C1893      H1898   1.083       .  S
C1894      C1895   1.405       .  A
C1895      C1896   1.398       .  A
C1895      H1899   1.083       .  S
C1896      H1900   1.083       .  S
C1901      C1902   1.407       .  A
C1901      C1906   1.399       .  A
C1901      H1911   1.083       .  S
C1902      C1907   1.480       .  S
C1902      C1903   1.404       .  A
C1903      C1904   1.396       .  A
C1903      H1908   1.083       .  S
C1904      C1905   1.401       .  A
C1904      H1909   1.083       .  S
C1905      C1906   1.401       .  A
C1906      H1910   1.083       .  S
C1907      C1912   1.403       .  A
C1907      C1916   1.405       .  A
C1912      C1913   1.396       .  A
C1912      H1917   1.083       .  S
C1913      C1914   1.406       .  A
C1913      H1918   1.083       .  S
C1914      C1915   1.406       .  A
C1915      C1916   1.399       .  A
C1915      H1919   1.083       .  S
C1916      H1920   1.083       .  S
C1921      C1922   1.405   1_554  A
C1921      C1926   1.397       .  A
C1921      H1931   1.082       .  S
C1922      C1927   1.495       .  S
C1922      C1923   1.407       .  A
C1923      C1924   1.403       .  A
C1923      H1928   1.083       .  S
C1924      C1925   1.413       .  A
C1924      H1929   1.077       .  S
C1925      C1926   1.407   1_556  A
C1926      H1930   1.083       .  S
C1927      C1932   1.407   1_556  A
C1927      C1936   1.407       .  A
C1932      C1933   1.399       .  A
C1932      H1937   1.082       .  S
C1933      C1934   1.406   1_554  A
C1933      H1938   1.083       .  S
C1934      C1935   1.409       .  A
C1935      C1936   1.403       .  A
C1935      H1939   1.083       .  S
C1936      H1940   1.083       .  S
C1941      C1942   1.402       .  A
C1941      C1946   1.399       .  A
C1941      H1951   1.083       .  S
C1942      C1947   1.482       .  S
C1942      C1943   1.408       .  A
C1943      C1944   1.401       .  A
C1943      H1948   1.083   1_556  S
C1944      C1945   1.401       .  A
C1944      H1949   1.083   1_556  S
C1945      C1946   1.407       .  A
C1946      H1950   1.083       .  S
C1947      C1952   1.407       .  A
C1947      C1956   1.402       .  A
C1952      C1953   1.405       .  A
C1952      H1957   1.083       .  S
C1953      C1954   1.404       .  A
C1953      H1958   1.083       .  S
C1954      C1955   1.407       .  A
C1955      C1956   1.393       .  A
C1955      H1959   1.084   1_556  S
C1956      H1960   1.083   1_556  S
C1961      C1962   1.406   1_554  A
C1961      C1966   1.398       .  A
C1961      H1971   1.083       .  S
C1962      C1967   1.492       .  S
C1962      C1963   1.405       .  A
C1963      C1964   1.397       .  A
C1963      H1968   1.082       .  S
C1964      C1965   1.408       .  A
C1964      H1969   1.083       .  S
C1965      C1966   1.411   1_556  A
C1966      H1970   1.076       .  S
C1967      C1972   1.408   1_556  A
C1967      C1976   1.406       .  A
C1972      C1973   1.398       .  A
C1972      H1977   1.082       .  S
C1973      C1974   1.405   1_554  A
C1973      H1978   1.083       .  S
C1974      C1975   1.409       .  A
C1975      C1976   1.398       .  A
C1975      H1979   1.083       .  S
C1976      H1980   1.082       .  S
C1981      C1982   1.403   1_554  A
C1981      C1986   1.389       .  A
C1981      H1991   1.083       .  S
C1982      C1987   1.488       .  S
C1982      C1983   1.411       .  A
C1983      C1984   1.408       .  A
C1983      H1988   1.083       .  S
C1984      C1985   1.405       .  A
C1984      H1989   1.083       .  S
C1985      C1986   1.403   1_556  A
C1986      H1990   1.084       .  S
C1987      C1992   1.407   1_556  A
C1987      C1996   1.406       .  A
C1992      C1993   1.393       .  A
C1992      H1997   1.083       .  S
C1993      C1994   1.402   1_554  A
C1993      H1998   1.083       .  S
C1994      C1995   1.406       .  A
C1995      C1996   1.404       .  A
C1995      H1999   1.083       .  S
C1996      H2000   1.083       .  S
C2001      C2002   1.402       .  A
C2001      C2006   1.396       .  A
C2001      H2011   1.083       .  S
C2002      C2007   1.481       .  S
C2002      C2003   1.402       .  A
C2003      C2004   1.396       .  A
C2003      H2008   1.083       .  S
C2004      C2005   1.412       .  A
C2004      H2009   1.076       .  S
C2005      C2006   1.409       .  A
C2006      H2010   1.083       .  S
C2007      C2012   1.403       .  A
C2007      C2016   1.406       .  A
C2012      C2013   1.395       .  A
C2012      H2017   1.083       .  S
C2013      C2014   1.409       .  A
C2013      H2018   1.083       .  S
C2014      C2015   1.402       .  A
C2015      C2016   1.395       .  A
C2015      H2019   1.083       .  S
C2016      H2020   1.083       .  S
C2021      C2022   1.406       .  A
C2021      C2026   1.394       .  A
C2021      H2031   1.083       .  S
C2022      C2027   1.491       .  S
C2022      C2023   1.409       .  A
C2023      C2024   1.404       .  A
C2023      H2028   1.083       .  S
C2024      C2025   1.405       .  A
C2024      H2029   1.083       .  S
C2025      C2026   1.404       .  A
C2026      H2030   1.084       .  S
C2027      C2032   1.406       .  A
C2027      C2036   1.408       .  A
C2032      C2033   1.394       .  A
C2032      H2037   1.083       .  S
C2033      C2034   1.405       .  A
C2033      H2038   1.083       .  S
C2034      C2035   1.406       .  A
C2035      C2036   1.405       .  A
C2035      H2039   1.083       .  S
C2036      H2040   1.083       .  S
C2041      C2042   1.404   1_554  A
C2041      C2046   1.397       .  A
C2041      H2051   1.083       .  S
C2042      C2047   1.492       .  S
C2042      C2043   1.406       .  A
C2043      C2044   1.403       .  A
C2043      H2048   1.083       .  S
C2044      C2045   1.412   1_556  A
C2044      H2049   1.083       .  S
C2045      C2046   1.410       .  A
C2046      H2050   1.077       .  S
C2047      C2052   1.407   1_556  A
C2047      C2056   1.406       .  A
C2052      C2053   1.399       .  A
C2052      H2057   1.083       .  S
C2053      C2054   1.407   1_554  A
C2053      H2058   1.083       .  S
C2054      C2055   1.409       .  A
C2055      C2056   1.403       .  A
C2055      H2059   1.083       .  S
C2056      H2060   1.083       .  S
C2061      C2062   1.407       .  A
C2061      C2066   1.402       .  A
C2061      H2071   1.083       .  S
C2062      C2067   1.482       .  S
C2062      C2063   1.403   1_554  A
C2063      C2064   1.396       .  A
C2063      H2068   1.083       .  S
C2064      C2065   1.404   1_556  A
C2064      H2069   1.083       .  S
C2065      C2066   1.405       .  A
C2066      H2070   1.083       .  S
C2067      C2072   1.403       .  A
C2067      C2076   1.407   1_554  A
C2072      C2073   1.395       .  A
C2072      H2077   1.083       .  S
C2073      C2074   1.405       .  A
C2073      H2078   1.083       .  S
C2074      C2075   1.404   1_554  A
C2075      C2076   1.402       .  A
C2075      H2079   1.082       .  S
C2076      H2080   1.083       .  S
C2081      C2082   1.408       .  A
C2081      C2086   1.398       .  A
C2081      H2091   1.082       .  S
C2082      C2087   1.486       .  S
C2082      C2083   1.405   1_556  A
C2083      C2084   1.393       .  A
C2083      H2088   1.082       .  S
C2084      C2085   1.404   1_554  A
C2084      H2089   1.083       .  S
C2085      C2086   1.406       .  A
C2086      H2090   1.083       .  S
C2087      C2092   1.405       .  A
C2087      C2096   1.404   1_556  A
C2092      C2093   1.398       .  A
C2092      H2097   1.083       .  S
C2093      C2094   1.410       .  A
C2093      H2098   1.077       .  S
C2094      C2095   1.406   1_556  A
C2095      C2096   1.392       .  A
C2095      H2099   1.084       .  S
C2096      H2100   1.082       .  S
C2101      C2102   1.409       .  A
C2101      C2106   1.399   1_554  A
C2101      H2111   1.083   1_554  S
C2102      C2107   1.482       .  S
C2102      C2103   1.401       .  A
C2103      C2104   1.399       .  A
C2103      H2108   1.083       .  S
C2104      C2105   1.409       .  A
C2104      H2109   1.083       .  S
C2105      C2106   1.399   1_554  A
C2106      H2110   1.083       .  S
C2107      C2112   1.408       .  A
C2107      C2116   1.400   1_554  A
C2112      C2113   1.407       .  A
C2112      H2117   1.083       .  S
C2113      C2114   1.407       .  A
C2113      H2118   1.083       .  S
C2114      C2115   1.407   1_554  A
C2115      C2116   1.388       .  A
C2115      H2119   1.084       .  S
C2116      H2120   1.084       .  S
C2121      C2122   1.405       .  A
C2121      C2126   1.398       .  A
C2121      H2131   1.083       .  S
C2122      C2127   1.485       .  S
C2122      C2123   1.403   1_545  A
C2123      C2124   1.396       .  A
C2123      H2128   1.083       .  S
C2124      C2125   1.410   1_565  A
C2124      H2129   1.083       .  S
C2125      C2126   1.410       .  A
C2126      H2130   1.077       .  S
C2127      C2132   1.405       .  A
C2127      C2136   1.405   1_545  A
C2132      C2133   1.397       .  A
C2132      H2137   1.083       .  S
C2133      C2134   1.407       .  A
C2133      H2138   1.083       .  S
C2134      C2135   1.408   1_545  A
C2135      C2136   1.398       .  A
C2135      H2139   1.083       .  S
C2136      H2140   1.083       .  S
C2141      C2142   1.403       .  A
C2141      C2146   1.398       .  A
C2141      H2151   1.083       .  S
C2142      C2147   1.476       .  S
C2142      C2143   1.402   1_545  A
C2143      C2144   1.393       .  A
C2143      H2148   1.083       .  S
C2144      C2145   1.405   1_565  A
C2144      H2149   1.083       .  S
C2145      C2146   1.409       .  A
C2146      H2150   1.083       .  S
C2147      C2152   1.402       .  A
C2147      C2156   1.401   1_545  A
C2152      C2153   1.398       .  A
C2152      H2157   1.083       .  S
C2153      C2154   1.410       .  A
C2153      H2158   1.082       .  S
C2154      C2155   1.410   1_545  A
C2155      C2156   1.394       .  A
C2155      H2159   1.080       .  S
C2156      H2160   1.083       .  S
C2161      C2162   1.405       .  A
C2161      C2166   1.399       .  A
C2161      H2171   1.083       .  S
C2162      C2167   1.483       .  S
C2162      C2163   1.404       .  A
C2163      C2164   1.398       .  A
C2163      H2168   1.083       .  S
C2164      C2165   1.407       .  A
C2164      H2169   1.083       .  S
C2165      C2166   1.406       .  A
C2166      H2170   1.083       .  S
C2167      C2172   1.405       .  A
C2167      C2176   1.404       .  A
C2172      C2173   1.400       .  A
C2172      H2177   1.083       .  S
C2173      C2174   1.405       .  A
C2173      H2178   1.082       .  S
C2174      C2175   1.406       .  A
C2175      C2176   1.397       .  A
C2175      H2179   1.083       .  S
C2176      H2180   1.083       .  S
C2181      C2182   1.402       .  A
C2181      C2186   1.395       .  A
C2181      H2191   1.083       .  S
C2182      C2187   1.483       .  S
C2182      C2183   1.404       .  A
C2183      C2184   1.399       .  A
C2183      H2188   1.083       .  S
C2184      C2185   1.407       .  A
C2184      H2189   1.080       .  S
C2185      C2186   1.411       .  A
C2186      H2190   1.080       .  S
C2187      C2192   1.405       .  A
C2187      C2196   1.405       .  A
C2192      C2193   1.399       .  A
C2192      H2197   1.083       .  S
C2193      C2194   1.405       .  A
C2193      H2198   1.083       .  S
C2194      C2195   1.405       .  A
C2195      C2196   1.397       .  A
C2195      H2199   1.083       .  S
C2196      H2200   1.083       .  S
C2201      C2202   1.402       .  A
C2201      C2206   1.397       .  A
C2201      H2211   1.083       .  S
C2202      C2207   1.473       .  S
C2202      C2203   1.402       .  A
C2203      C2204   1.398       .  A
C2203      H2208   1.083       .  S
C2204      C2205   1.407       .  A
C2204      H2209   1.082       .  S
C2205      C2206   1.405       .  A
C2206      H2210   1.082       .  S
C2207      C2212   1.402       .  A
C2207      C2216   1.402       .  A
C2212      C2213   1.396       .  A
C2212      H2217   1.083       .  S
C2213      C2214   1.404       .  A
C2213      H2218   1.083       .  S
C2214      C2215   1.406       .  A
C2215      C2216   1.398       .  A
C2215      H2219   1.083       .  S
C2216      H2220   1.083       .  S
C2221      C2222   1.403       .  A
C2221      C2226   1.399       .  A
C2221      H2231   1.083       .  S
C2222      C2227   1.478       .  S
C2222      C2223   1.401       .  A
C2223      C2224   1.393       .  A
C2223      H2228   1.083       .  S
C2224      C2225   1.409       .  A
C2224      H2229   1.079       .  S
C2225      C2226   1.409       .  A
C2226      H2230   1.083       .  S
C2227      C2232   1.404       .  A
C2227      C2236   1.403       .  A
C2232      C2233   1.398       .  A
C2232      H2237   1.083       .  S
C2233      C2234   1.408       .  A
C2233      H2238   1.083       .  S
C2234      C2235   1.405       .  A
C2235      C2236   1.395       .  A
C2235      H2239   1.083       .  S
C2236      H2240   1.083       .  S
C2241      C2242   1.404       .  A
C2241      C2246   1.396       .  A
C2241      H2251   1.083       .  S
C2242      C2247   1.485       .  S
C2242      C2243   1.403       .  A
C2243      C2244   1.395       .  A
C2243      H2248   1.082       .  S
C2244      C2245   1.408       .  A
C2244      H2249   1.083       .  S
C2245      C2246   1.410       .  A
C2246      H2250   1.076       .  S
C2247      C2252   1.405       .  A
C2247      C2256   1.406       .  A
C2252      C2253   1.395       .  A
C2252      H2257   1.083       .  S
C2253      C2254   1.406       .  A
C2253      H2258   1.083       .  S
C2254      C2255   1.407       .  A
C2255      C2256   1.398       .  A
C2255      H2259   1.083       .  S
C2256      H2260   1.083       .  S
C2261      C2262   1.408       .  A
C2261      C2266   1.401       .  A
C2261      H2271   1.082       .  S
C2262      C2267   1.498       .  S
C2262      C2263   1.408       .  A
C2263      C2264   1.404       .  A
C2263      H2268   1.083       .  S
C2264      C2265   1.409       .  A
C2264      H2269   1.083       .  S
C2265      C2266   1.407       .  A
C2266      H2270   1.083       .  S
C2267      C2272   1.407       .  A
C2267      C2276   1.408       .  A
C2272      C2273   1.401       .  A
C2272      H2277   1.083       .  S
C2273      C2274   1.407       .  A
C2273      H2278   1.081       .  S
C2274      C2275   1.411       .  A
C2275      C2276   1.404       .  A
C2275      H2279   1.082       .  S
C2276      H2280   1.083       .  S
C2281      C2282   1.408       .  A
C2281      C2286   1.397       .  A
C2281      H2291   1.083       .  S
C2282      C2287   1.487       .  S
C2282      C2283   1.406       .  A
C2283      C2284   1.396       .  A
C2283      H2288   1.082       .  S
C2284      C2285   1.403       .  A
C2284      H2289   1.083       .  S
C2285      C2286   1.404       .  A
C2286      H2290   1.083       .  S
C2287      C2292   1.407       .  A
C2287      C2296   1.408       .  A
C2292      C2293   1.395       .  A
C2292      H2297   1.082       .  S
C2293      C2294   1.401       .  A
C2293      H2298   1.084       .  S
C2294      C2295   1.402       .  A
C2295      C2296   1.397       .  A
C2295      H2299   1.084       .  S
C2296      H2300   1.082       .  S
C2301      C2302   1.407       .  A
C2301      C2306   1.398       .  A
C2301      H2311   1.083       .  S
C2302      C2307   1.481       .  S
C2302      C2303   1.402       .  A
C2303      C2304   1.390       .  A
C2303      H2308   1.083       .  S
C2304      C2305   1.406       .  A
C2304      H2309   1.083       .  S
C2305      C2306   1.406       .  A
C2306      H2310   1.083       .  S
C2307      C2312   1.403       .  A
C2307      C2316   1.405       .  A
C2312      C2313   1.395       .  A
C2312      H2317   1.083       .  S
C2313      C2314   1.406       .  A
C2313      H2318   1.078       .  S
C2314      C2315   1.406       .  A
C2315      C2316   1.394       .  A
C2315      H2319   1.082       .  S
C2316      H2320   1.083       .  S
C2321      C2322   1.404       .  A
C2321      C2326   1.401       .  A
C2321      H2331   1.083       .  S
C2322      C2327   1.473       .  S
C2322      C2323   1.399       .  A
C2323      C2324   1.392       .  A
C2323      H2328   1.083       .  S
C2324      C2325   1.407       .  A
C2324      H2329   1.082       .  S
C2325      C2326   1.406       .  A
C2326      H2330   1.082       .  S
C2327      C2332   1.403       .  A
C2327      C2336   1.402       .  A
C2332      C2333   1.395       .  A
C2332      H2337   1.083       .  S
C2333      C2334   1.404       .  A
C2333      H2338   1.083       .  S
C2334      C2335   1.408       .  A
C2335      C2336   1.398       .  A
C2335      H2339   1.083       .  S
C2336      H2340   1.083       .  S
C2341      C2342   1.400       .  A
C2341      C2346   1.389       .  A
C2341      H2351   1.083       .  S
C2342      C2347   1.475       .  S
C2342      C2343   1.404       .  A
C2343      C2344   1.396       .  A
C2343      H2348   1.083       .  S
C2344      C2345   1.409       .  A
C2344      H2349   1.077       .  S
C2345      C2346   1.407       .  A
C2346      H2350   1.084       .  S
C2347      C2352   1.403       .  A
C2347      C2356   1.404       .  A
C2352      C2353   1.393       .  A
C2352      H2357   1.083       .  S
C2353      C2354   1.407       .  A
C2353      H2358   1.083       .  S
C2354      C2355   1.406       .  A
C2355      C2356   1.395       .  A
C2355      H2359   1.083       .  S
C2356      H2360   1.083       .  S
C2361      C2362   1.409       .  A
C2361      C2366   1.402       .  A
C2361      H2371   1.082       .  S
C2362      C2367   1.495       .  S
C2362      C2363   1.406       .  A
C2363      C2364   1.395       .  A
C2363      H2368   1.082       .  S
C2364      C2365   1.407       .  A
C2364      H2369   1.082       .  S
C2365      C2366   1.406       .  A
C2366      H2370   1.082       .  S
C2367      C2372   1.408       .  A
C2367      C2376   1.408       .  A
C2372      C2373   1.401       .  A
C2372      H2377   1.082       .  S
C2373      C2374   1.407       .  A
C2373      H2378   1.083       .  S
C2374      C2375   1.406       .  A
C2375      C2376   1.398       .  A
C2375      H2379   1.083       .  S
C2376      H2380   1.082       .  S
C2381      C2382   1.401       .  A
C2381      C2386   1.394       .  A
C2381      H2391   1.083       .  S
C2382      C2387   1.489       .  S
C2382      C2383   1.409       .  A
C2383      C2384   1.404       .  A
C2383      H2388   1.083       .  S
C2384      C2385   1.406       .  A
C2384      H2389   1.081       .  S
C2385      C2386   1.412       .  A
C2386      H2390   1.081       .  S
C2387      C2392   1.412       .  A
C2387      C2396   1.403       .  A
C2392      C2393   1.405       .  A
C2392      H2397   1.083       .  S
C2393      C2394   1.402       .  A
C2393      H2398   1.083       .  S
C2394      C2395   1.406       .  A
C2395      C2396   1.395       .  A
C2395      H2399   1.084       .  S
C2396      H2400   1.083       .  S
C2401      C2402   1.403       .  A
C2401      C2406   1.390       .  A
C2401      H2411   1.082       .  S
C2402      C2407   1.483       .  S
C2402      C2403   1.408   1_545  A
C2403      C2404   1.399       .  A
C2403      H2408   1.083       .  S
C2404      C2405   1.406   1_565  A
C2404      H2409   1.083       .  S
C2405      C2406   1.404       .  A
C2406      H2410   1.083       .  S
C2407      C2412   1.404       .  A
C2407      C2416   1.404   1_545  A
C2412      C2413   1.393       .  A
C2412      H2417   1.083       .  S
C2413      C2414   1.408       .  A
C2413      H2418   1.083       .  S
C2414      C2415   1.409   1_545  A
C2415      C2416   1.398       .  A
C2415      H2419   1.077       .  S
C2416      H2420   1.083       .  S
C2421      C2422   1.406   1_565  A
C2421      C2426   1.397       .  A
C2421      H2431   1.083       .  S
C2422      C2427   1.487       .  S
C2422      C2423   1.405       .  A
C2423      C2424   1.396       .  A
C2423      H2428   1.082       .  S
C2424      C2425   1.406       .  A
C2424      H2429   1.083       .  S
C2425      C2426   1.407   1_545  A
C2426      H2430   1.083       .  S
C2427      C2432   1.404       .  A
C2427      C2436   1.404   1_545  A
C2432      C2433   1.396       .  A
C2432      H2437   1.083       .  S
C2433      C2434   1.409       .  A
C2433      H2438   1.083       .  S
C2434      C2435   1.411   1_545  A
C2435      C2436   1.398       .  A
C2435      H2439   1.077       .  S
C2436      H2440   1.083       .  S
C2441      C2442   1.405       .  A
C2441      C2446   1.396       .  A
C2441      H2451   1.082       .  S
C2442      C2447   1.492       .  S
C2442      C2443   1.410       .  A
C2443      C2444   1.398       .  A
C2443      H2448   1.082       .  S
C2444      C2445   1.404       .  A
C2444      H2449   1.083       .  S
C2445      C2446   1.407       .  A
C2446      H2450   1.083       .  S
C2447      C2452   1.409       .  A
C2447      C2456   1.405       .  A
C2452      C2453   1.400       .  A
C2452      H2457   1.082       .  S
C2453      C2454   1.406       .  A
C2453      H2458   1.082       .  S
C2454      C2455   1.406       .  A
C2455      C2456   1.395       .  A
C2455      H2459   1.081       .  S
C2456      H2460   1.082       .  S
C2461      C2462   1.400       .  A
C2461      C2466   1.393       .  A
C2461      H2471   1.083       .  S
C2462      C2467   1.471       .  S
C2462      C2463   1.403       .  A
C2463      C2464   1.398       .  A
C2463      H2468   1.083       .  S
C2464      C2465   1.406       .  A
C2464      H2469   1.083       .  S
C2465      C2466   1.407       .  A
C2466      H2470   1.083       .  S
C2467      C2472   1.406       .  A
C2467      C2476   1.400       .  A
C2472      C2473   1.398       .  A
C2472      H2477   1.083       .  S
C2473      C2474   1.401       .  A
C2473      H2478   1.082       .  S
C2474      C2475   1.404       .  A
C2475      C2476   1.392       .  A
C2475      H2479   1.083       .  S
C2476      H2480   1.083       .  S
C2481      C2482   1.406       .  A
C2481      C2486   1.399       .  A
C2481      H2491   1.083       .  S
C2482      C2487   1.487       .  S
C2482      C2483   1.406       .  A
C2483      C2484   1.398       .  A
C2483      H2488   1.083       .  S
C2484      C2485   1.405       .  A
C2484      H2489   1.083       .  S
C2485      C2486   1.407       .  A
C2486      H2490   1.083       .  S
C2487      C2492   1.406       .  A
C2487      C2496   1.406       .  A
C2492      C2493   1.398       .  A
C2492      H2497   1.083       .  S
C2493      C2494   1.405       .  A
C2493      H2498   1.083       .  S
C2494      C2495   1.405       .  A
C2495      C2496   1.397       .  A
C2495      H2499   1.082       .  S
C2496      H2500   1.083       .  S
C2501      C2502   1.407       .  A
C2501      C2506   1.395       .  A
C2501      H2511   1.083       .  S
C2502      C2507   1.485       .  S
C2502      C2503   1.407       .  A
C2503      C2504   1.401       .  A
C2503      H2508   1.083       .  S
C2504      C2505   1.401       .  A
C2504      H2509   1.083       .  S
C2505      C2506   1.400       .  A
C2506      H2510   1.083       .  S
C2507      C2512   1.403       .  A
C2507      C2516   1.407       .  A
C2512      C2513   1.394       .  A
C2512      H2517   1.083       .  S
C2513      C2514   1.407       .  A
C2513      H2518   1.083       .  S
C2514      C2515   1.407       .  A
C2515      C2516   1.401       .  A
C2515      H2519   1.083       .  S
C2516      H2520   1.083       .  S
C2521      C2522   1.411       .  A
C2521      C2526   1.406       .  A
C2521      H2531   1.082       .  S
C2522      C2527   1.504       .  S
C2522      C2523   1.408       .  A
C2523      C2524   1.399       .  A
C2523      H2528   1.082       .  S
C2524      C2525   1.407       .  A
C2524      H2529   1.083       .  S
C2525      C2526   1.408       .  A
C2526      H2530   1.083       .  S
C2527      C2532   1.410       .  A
C2527      C2536   1.407       .  A
C2532      C2533   1.406       .  A
C2532      H2537   1.082       .  S
C2533      C2534   1.412       .  A
C2533      H2538   1.078       .  S
C2534      C2535   1.409       .  A
C2535      C2536   1.399       .  A
C2535      H2539   1.083       .  S
C2536      H2540   1.082       .  S
C2541      C2542   1.402       .  A
C2541      C2546   1.390       .  A
C2541      H2551   1.083       .  S
C2542      C2547   1.469       .  S
C2542      C2543   1.403       .  A
C2543      C2544   1.394       .  A
C2543      H2548   1.083       .  S
C2544      C2545   1.405       .  A
C2544      H2549   1.083       .  S
C2545      C2546   1.403       .  A
C2546      H2550   1.083       .  S
C2547      C2552   1.400       .  A
C2547      C2556   1.401       .  A
C2552      C2553   1.388       .  A
C2552      H2557   1.083       .  S
C2553      C2554   1.407       .  A
C2553      H2558   1.084       .  S
C2554      C2555   1.410       .  A
C2555      C2556   1.394       .  A
C2555      H2559   1.076       .  S
C2556      H2560   1.083       .  S
C2561      C2562   1.410       .  A
C2561      C2566   1.403       .  A
C2561      H2571   1.082       .  S
C2562      C2567   1.495       .  S
C2562      C2563   1.406       .  A
C2563      C2564   1.394       .  A
C2563      H2568   1.082       .  S
C2564      C2565   1.402       .  A
C2564      H2569   1.082       .  S
C2565      C2566   1.408       .  A
C2566      H2570   1.083       .  S
C2567      C2572   1.406       .  A
C2567      C2576   1.410       .  A
C2572      C2573   1.400       .  A
C2572      H2577   1.082       .  S
C2573      C2574   1.409       .  A
C2573      H2578   1.083       .  S
C2574      C2575   1.404       .  A
C2575      C2576   1.399       .  A
C2575      H2579   1.083       .  S
C2576      H2580   1.082       .  S
C2581      C2582   1.406       .  A
C2581      C2586   1.396       .  A
C2581      H2591   1.082       .  S
C2582      C2587   1.489       .  S
C2582      C2583   1.408       .  A
C2583      C2584   1.400       .  A
C2583      H2588   1.083       .  S
C2584      C2585   1.406       .  A
C2584      H2589   1.083       .  S
C2585      C2586   1.403       .  A
C2586      H2590   1.083       .  S
C2587      C2592   1.408       .  A
C2587      C2596   1.406       .  A
C2592      C2593   1.399       .  A
C2592      H2597   1.082       .  S
C2593      C2594   1.402       .  A
C2593      H2598   1.083       .  S
C2594      C2595   1.401       .  A
C2595      C2596   1.397       .  A
C2595      H2599   1.078       .  S
C2596      H2600   1.083       .  S
C2601      C2602   1.404       .  A
C2601      C2606   1.400       .  A
C2601      H2611   1.083       .  S
C2602      C2607   1.486       .  S
C2602      C2603   1.403       .  A
C2603      C2604   1.399       .  A
C2603      H2608   1.083       .  S
C2604      C2605   1.408       .  A
C2604      H2609   1.079       .  S
C2605      C2606   1.411       .  A
C2606      H2610   1.081       .  S
C2607      C2612   1.404       .  A
C2607      C2616   1.406       .  A
C2612      C2613   1.399       .  A
C2612      H2617   1.083       .  S
C2613      C2614   1.409       .  A
C2613      H2618   1.083       .  S
C2614      C2615   1.407       .  A
C2615      C2616   1.401       .  A
C2615      H2619   1.083       .  S
C2616      H2620   1.083       .  S
C2621      C2622   1.405       .  A
C2621      C2626   1.395       .  A
C2621      H2631   1.083       .  S
C2622      C2627   1.485       .  S
C2622      C2623   1.408       .  A
C2623      C2624   1.401       .  A
C2623      H2628   1.083       .  S
C2624      C2625   1.402       .  A
C2624      H2629   1.083       .  S
C2625      C2626   1.403       .  A
C2626      H2630   1.083       .  S
C2627      C2632   1.405       .  A
C2627      C2636   1.406       .  A
C2632      C2633   1.396       .  A
C2632      H2637   1.083       .  S
C2633      C2634   1.404       .  A
C2633      H2638   1.083       .  S
C2634      C2635   1.406       .  A
C2635      C2636   1.399       .  A
C2635      H2639   1.083       .  S
C2636      H2640   1.083       .  S
