geometry optimzed in LAMMPS
_audit_creation_date              2020-11-30 
_audit_creation_method            'lammps2cif' 
_symmetry_space_group_name_H-M    'P1' 
_symmetry_Int_Tables_number       1 
_symmetry_cell_setting            triclinic 
loop_ 
_symmetry_equiv_pos_as_xyz 
  x,y,z 
_cell_length_a                    42.66206349 
_cell_length_b                    42.76225776192689 
_cell_length_c                    42.694251377801905 
_cell_angle_alpha                 90.00333169799725 
_cell_angle_beta                  89.99560373497054 
_cell_angle_gamma                 90.01753199848218 
loop_ 
_atom_site_label 
_atom_site_type_symbol 
_atom_site_fract_x 
_atom_site_fract_y 
_atom_site_fract_z 
_atom_site_charge 
O1          O  0.30357390  0.76126688  0.47641832    -0.75300
C2          C  0.31300836  0.70220975  0.55867427     0.85800
O3          O  0.27595142  0.64647358  0.46474270    -0.76400
O4          O  0.21053307  0.68707347  0.55774468    -0.77900
O5          O  0.20521128  0.77262112  0.50426402    -0.77700
O6          O  0.25894202  0.77368969  0.45199921    -0.76300
Zn7        Zn  0.29523633  0.71722742  0.49143462     1.55700
O8          O  0.22827233  0.76270631  0.55039951    -0.77700
Cd9        Cd  0.22787856  0.74303506  0.47362471     1.59700
Cd10       Cd  0.23817689  0.66865091  0.48675314     1.59600
O11         O  0.19578597  0.72150429  0.44309862    -0.77700
O12         O  0.25146419  0.71150132  0.49828576    -1.88200
Cd13       Cd  0.24463670  0.71772214  0.54341263     1.59900
O14         O  0.20296065  0.67078617  0.45362778    -0.77600
O15         O  0.28517307  0.70665124  0.56864075    -0.76300
C16         C  0.30048042  0.65900795  0.45287059     0.86200
C17         C  0.28729130  0.77964795  0.45944155     0.85900
O18         O  0.32026680  0.70632377  0.53007070    -0.75200
C19         C  0.21100804  0.77950104  0.53271646     0.86700
O20         O  0.30894709  0.68683970  0.45904308    -0.75300
C21         C  0.18898025  0.69265145  0.43903770     0.86800
C22         C  0.20436106  0.65922734  0.54927437     0.87200
O23         O  0.21664788  0.64662238  0.52502215    -0.77800
O24         O  0.82064166  0.70794344  0.96831982    -0.75300
C25         C  0.78452440  0.78039050  0.03872971     0.85800
O26         O  0.77764141  0.64715031  0.03189034    -0.76400
O27         O  0.69470098  0.72118370  0.05311612    -0.77900
O28         O  0.72839510  0.76384400  0.94664932    -0.77700
O29         O  0.78601325  0.70809422  0.92933379    -0.76300
Zn30       Zn  0.79490548  0.71852163  0.00668314     1.55700
O31         O  0.70327855  0.77220498  0.99194660    -0.77700
Cd32       Cd  0.74521317  0.71890771  0.95398377     1.59700
Cd33       Cd  0.73911697  0.66912045  0.01079403     1.59600
O34         O  0.71191581  0.68775914  0.93928810    -0.77700
O35         O  0.75141074  0.71218210  0.99912279    -1.88200
Cd36       Cd  0.72626909  0.74311192  0.02277729     1.59900
O37         O  0.71756881  0.64746751  0.97239294    -0.77600
O38         O  0.75603067  0.77407115  0.04509909    -0.76300
C39         C  0.80162651  0.66009690  0.04441517     0.86200
C40         C  0.81370300  0.70368924  0.93964704     0.85900
O41         O  0.80172445  0.76249087  0.02214175    -0.75200
C42         C  0.70997722  0.77986294  0.96391184     0.86700
O43         O  0.80911572  0.68839388  0.03919492    -0.75300
C44         C  0.70574882  0.65993757  0.94783642     0.86800
C45         C  0.68933979  0.69226181  0.05833744     0.87200
O46         O  0.70437524  0.67050469  0.04461567    -0.77800
O47         O  0.19637828  0.53624229  0.17808138    -0.75300
C48         C  0.27179710  0.46843958  0.21218806     0.85800
O49         O  0.13883230  0.46899734  0.22529403    -0.76400
O50         O  0.21690338  0.45302869  0.30504267    -0.77900
O51         O  0.25403555  0.56059821  0.26904473    -0.77700
O52         O  0.19703128  0.57530456  0.21251997    -0.76300
Zn53       Zn  0.20823400  0.49819313  0.20391780     1.55700
O54         O  0.26540845  0.51577638  0.29359663    -0.77700
Cd55       Cd  0.20889930  0.55124467  0.25334328     1.59700
Cd56       Cd  0.16134613  0.49264130  0.26201413     1.59600
O57         O  0.17781437  0.56514350  0.28716742    -0.77700
O58         O  0.20352286  0.50586331  0.24771341    -1.88200
Cd59       Cd  0.23642515  0.48369049  0.27199503     1.59900
O60         O  0.13862993  0.53039546  0.28352712    -0.77600
O61         O  0.26709522  0.46245079  0.24106669    -0.76300
C62         C  0.15111017  0.45739895  0.20051854     0.86200
C63         C  0.19228974  0.56493366  0.18493075     0.85900
O64         O  0.25237001  0.48381785  0.19553059    -0.75200
C65         C  0.27155148  0.54412240  0.28678887     0.86700
O66         O  0.17846129  0.46466592  0.19122484    -0.75300
C67         C  0.15054364  0.55558085  0.29452050     0.86800
C68         C  0.18829329  0.44740304  0.31191977     0.87200
O69         O  0.16555828  0.46028888  0.29762397    -0.77800
O70         O  0.53230933  0.18718954  0.19729007    -0.75300
C71         C  0.46326677  0.22052162  0.27203362     0.85800
O72         O  0.46586601  0.23320354  0.13904012    -0.76400
O73         O  0.44606131  0.31271732  0.21532430    -0.77900
O74         O  0.55379686  0.27804365  0.25571315    -0.77700
O75         O  0.57132834  0.22165229  0.19871038    -0.76300
Zn76       Zn  0.49391427  0.21258542  0.20889273     1.55700
O77         O  0.50832279  0.30244294  0.26541533    -0.77700
Cd78       Cd  0.54636944  0.26223029  0.21034611     1.59700
Cd79       Cd  0.48863837  0.27033074  0.16160478     1.59600
O80         O  0.56083431  0.29615299  0.17963290    -0.77700
O81         O  0.50098700  0.25636251  0.20401485    -1.88200
Cd82       Cd  0.47710387  0.28028547  0.23600001     1.59900
O83         O  0.52702559  0.29148557  0.13970098    -0.77600
O84         O  0.45615927  0.24902763  0.26675736    -0.76300
C85         C  0.45412715  0.20847756  0.15122907     0.86200
C86         C  0.56107725  0.19410528  0.19353555     0.85900
O87         O  0.47949214  0.20421149  0.25301064    -0.75200
C88         C  0.53653931  0.29576160  0.27251541     0.86700
O89         O  0.46083548  0.19942568  0.17879064    -0.75300
C90         C  0.55186924  0.30288336  0.15201354     0.86800
C91         C  0.44148453  0.31965025  0.18651943     0.87200
O92         O  0.45576045  0.30575014  0.16437846    -0.77800
O93         O  0.32106738  0.20587461  0.46689998    -0.75300
C94         C  0.28550820  0.27995490  0.53586615     0.85800
O95         O  0.27944675  0.14689269  0.53279792    -0.76400
O96         O  0.19587362  0.21989844  0.55302960    -0.77900
O97         O  0.22783857  0.26114904  0.44534196    -0.77700
O98         O  0.28621981  0.20536808  0.42813168    -0.76300
Zn99       Zn  0.29565578  0.21751306  0.50511602     1.55700
O100        O  0.20367652  0.27031584  0.49103020    -0.77700
Cd101      Cd  0.24540979  0.21640207  0.45304398     1.59700
Cd102      Cd  0.24034740  0.16751280  0.51096695     1.59600
O103        O  0.21233552  0.18452960  0.43924272    -0.77700
O104        O  0.25207425  0.21051870  0.49830463    -1.88200
Cd105      Cd  0.22718172  0.24169730  0.52201125     1.59900
O106        O  0.21887024  0.14478947  0.47286894    -0.77600
O107        O  0.25731336  0.27328967  0.54325615    -0.76300
C108        C  0.30343102  0.16049490  0.54469394     0.86200
C109        C  0.31398611  0.20107694  0.43835944     0.85900
O110        O  0.30241224  0.26201841  0.51902216    -0.75200
C111        C  0.20975757  0.27748072  0.46271280     0.86700
O112        O  0.31057889  0.18866935  0.53844501    -0.75300
C113        C  0.20660580  0.15674092  0.44822943     0.86800
C114        C  0.19042263  0.19099585  0.55843962     0.87200
O115        O  0.20543019  0.16915452  0.54478361    -0.77800
O116        O  0.75241128  0.52843039  0.19285446    -0.75300
C117        C  0.69429088  0.44553530  0.18465153     0.85800
O118        O  0.63725755  0.53817305  0.22055438    -0.76400
O119        O  0.68127654  0.44753603  0.28709079    -0.77900
O120        O  0.76535361  0.50110639  0.29138972    -0.77700
O121        O  0.76472307  0.55310249  0.23741421    -0.76300
Zn122      Zn  0.70853613  0.51305718  0.20137169     1.55700
O123        O  0.75647471  0.45534698  0.26744696    -0.77700
Cd124      Cd  0.73478306  0.53133762  0.26892661     1.59700
Cd125      Cd  0.66041132  0.51762132  0.25861533     1.59600
O126        O  0.71275161  0.56182418  0.30092442    -0.77700
O127        O  0.70344663  0.50660542  0.24522263    -1.88200
Cd128      Cd  0.71091174  0.46179784  0.25221581     1.59900
O129        O  0.66193543  0.55162967  0.29317942    -0.77600
O130        O  0.69932887  0.43595684  0.21246396    -0.76300
C131        C  0.64947182  0.55035706  0.19603163     0.86200
C132        C  0.77065239  0.54562788  0.20908968     0.85900
O133        O  0.69789995  0.47404698  0.17697721    -0.75200
C134        C  0.77297468  0.47297341  0.28503547     0.86700
O135        O  0.67750187  0.54486409  0.18752751    -0.75300
C136        C  0.68376930  0.56617951  0.30736449     0.86800
C137        C  0.65332170  0.45552019  0.29364186     0.87200
O138        O  0.63986428  0.47920110  0.28118155    -0.77800
O139        O  0.01951908  0.30875380  0.24328285    -0.75300
C140        C  0.93881665  0.31906585  0.30493991     0.85800
O141        O  0.03508965  0.28450530  0.35815234    -0.76400
O142        O  0.94259659  0.21670044  0.32103969    -0.77900
O143        O  0.99163431  0.21030834  0.23483146    -0.77700
O144        O  0.04358237  0.26389619  0.23100153    -0.76300
Zn145      Zn  0.00594347  0.30178562  0.28796576     1.55700
O146        O  0.94626118  0.23459994  0.24507990    -0.77700
Cd147      Cd  0.02326398  0.23346506  0.26294919     1.59700
Cd148      Cd  0.01368005  0.24575260  0.33724625     1.59600
O149        O  0.05463409  0.20171784  0.28383482    -0.77700
O150        O  0.00005630  0.25811215  0.29473779    -1.88200
Cd151      Cd  0.95480968  0.25095205  0.28993011     1.59900
O152        O  0.04769633  0.21133981  0.33480151    -0.77600
O153        O  0.92925383  0.29098742  0.30175182    -0.76300
C154        C  0.04613232  0.30902134  0.34493932     0.86200
C155        C  0.03593907  0.29206531  0.22475075     0.85900
O156        O  0.96712975  0.32666569  0.29940906    -0.75200
C157        C  0.96324038  0.21669385  0.22822980     0.86700
O158        O  0.03915466  0.31684128  0.31705746    -0.75300
C159        C  0.06071890  0.19625142  0.31265507     0.86800
C160        C  0.95233245  0.21052187  0.34850172     0.87200
O161        O  0.97671773  0.22328453  0.36039614    -0.77800
O162        O  0.80367587  0.03962772  0.32117690    -0.75300
C163        C  0.72964684  0.96887739  0.28958483     0.85800
O164        O  0.86260245  0.97663155  0.27700896    -0.76400
O165        O  0.78571852  0.95204707  0.19762848    -0.77900
O166        O  0.74221414  0.05853019  0.23125980    -0.77700
O167        O  0.80100575  0.07797352  0.28607366    -0.76300
Zn168      Zn  0.79174042  0.00101002  0.29668992     1.55700
O169        O  0.73394633  0.01287565  0.20689333    -0.77700
Cd170      Cd  0.78807381  0.05228829  0.24637572     1.59700
Cd171      Cd  0.83866277  0.99630959  0.23900493     1.59600
O172        O  0.81708290  0.06644501  0.21099423    -0.77700
O173        O  0.79596511  0.00751724  0.25288049    -1.88200
Cd174      Cd  0.76448215  0.98287464  0.22946381     1.59900
O175        O  0.85843740  0.03444631  0.21558473    -0.77600
O176        O  0.73516909  0.96132207  0.26123969    -0.76300
C177        C  0.85062253  0.96409253  0.30146113     0.86200
C178        C  0.80723436  0.06816999  0.31359744     0.85900
O179        O  0.74802618  0.98605707  0.30565946    -0.75200
C180        C  0.72605856  0.04090801  0.21328484     0.86700
O181        O  0.82247035  0.96889336  0.30990900    -0.75300
C182        C  0.84476549  0.05824079  0.20361550     0.86800
C183        C  0.81458647  0.94739411  0.19108637     0.87200
O184        O  0.83664755  0.96182719  0.20501494    -0.77800
O185        O  0.69745174  0.75202063  0.47556082    -0.75300
C186        C  0.68692995  0.81000674  0.55908403     0.85800
O187        O  0.72215334  0.86761191  0.46663930    -0.76400
O188        O  0.78884757  0.82662476  0.55856426    -0.77900
O189        O  0.79560938  0.74191447  0.50441369    -0.77700
O190        O  0.74259823  0.74084653  0.45142868    -0.76300
Zn191      Zn  0.70465171  0.79587792  0.49166618     1.55700
O192        O  0.77165195  0.75076979  0.55027399    -0.77700
Cd193      Cd  0.77282998  0.77166366  0.47397736     1.59700
Cd194      Cd  0.76066718  0.84576134  0.48777468     1.59600
O195        O  0.80479429  0.79431425  0.44424453    -0.77700
O196        O  0.74831710  0.80245105  0.49861654    -1.88200
Cd197      Cd  0.75529335  0.79572014  0.54360101     1.59900
O198        O  0.79583661  0.84485743  0.45436590    -0.77600
O199        O  0.71488498  0.80612587  0.56882375    -0.76300
C200        C  0.69784706  0.85484261  0.45455484     0.86200
C201        C  0.71425853  0.73427729  0.45839541     0.85900
O202        O  0.67945038  0.80565765  0.53056320    -0.75200
C203        C  0.78935754  0.73444000  0.53261534     0.86700
O204        O  0.69008274  0.82665584  0.45999206    -0.75300
C205        C  0.81068412  0.82334292  0.44005684     0.86800
C206        C  0.79426531  0.85478979  0.55065821     0.87200
O207        O  0.78178378  0.86747419  0.52653708    -0.77800
C208        C  0.92324602  0.84465375  0.34332871     0.89700
C209        C  0.94566152  0.85927227  0.36744066    -0.50500
C210        C  0.93118286  0.88015331  0.38692952     0.12600
C211        C  0.89587572  0.88419300  0.38065191     0.23600
C212        C  0.89664468  0.83005781  0.36248594    -0.51200
C213        C  0.88226327  0.85073096  0.38210121     0.12700
C214        C  0.90852128  0.87242290  0.32634725    -0.50800
C215        C  0.89447682  0.89320447  0.34581286     0.13300
H216        H  0.97067233  0.85457169  0.36817886     0.17800
H217        H  0.88414325  0.90122166  0.39644384     0.03600
H218        H  0.88973758  0.80567558  0.36063658     0.18100
H219        H  0.90955136  0.87567460  0.30110548     0.17900
C220        C  0.83968141  0.16262149  0.42456354     0.89700
C221        C  0.82344300  0.14474325  0.39809956    -0.50500
C222        C  0.84296865  0.12520344  0.38212533     0.12600
C223        C  0.87720744  0.12550233  0.39418152     0.23600
C224        C  0.85472773  0.13753644  0.44544688    -0.51200
C225        C  0.87454650  0.11813794  0.42945049     0.12700
C226        C  0.86716735  0.17949183  0.40919315    -0.50800
C227        C  0.88695528  0.16020125  0.39355482     0.13300
H228        H  0.79871154  0.14720917  0.39256465     0.17800
H229        H  0.89336260  0.10977715  0.38118898     0.03600
H230        H  0.85109171  0.13606990  0.47059083     0.18100
H231        H  0.87093988  0.20458878  0.41088098     0.17900
C232        C  0.84452179  0.93239397  0.66370151     0.89700
C233        C  0.86314988  0.90625423  0.67956537    -0.50500
C234        C  0.88163275  0.88980165  0.65941168     0.12600
C235        C  0.87963882  0.90109308  0.62500986     0.23600
C236        C  0.86897700  0.95279647  0.64693738    -0.51200
C237        C  0.88734126  0.93632526  0.62650369     0.12700
C238        C  0.82615008  0.91649607  0.63745236    -0.50800
C239        C  0.84439287  0.90033586  0.61705635     0.13300
H240        H  0.86191011  0.90125140  0.70448384     0.17800
H241        H  0.89452780  0.88769047  0.60840141     0.03600
H242        H  0.87087754  0.97793311  0.65011053     0.18100
H243        H  0.80084753  0.91824992  0.63491709     0.17900
C244        C  0.15570394  0.08193376  0.33404012     0.89700
C245        C  0.13087139  0.06121209  0.34991787    -0.50500
C246        C  0.11253342  0.07717123  0.37081509     0.12600
C247        C  0.12068904  0.11218722  0.37368961     0.23600
C248        C  0.13741717  0.10889730  0.31905544    -0.51200
C249        C  0.11896628  0.12478185  0.33974575     0.12700
C250        C  0.17404958  0.09663886  0.36098535    -0.50800
C251        C  0.15588547  0.11221266  0.38187407     0.13300
H252        H  0.12871746  0.03622692  0.34585123     0.17800
H253        H  0.10587418  0.12513718  0.39072167     0.03600
H254        H  0.13882630  0.11480750  0.29435025     0.18100
H255        H  0.19932339  0.09455967  0.36358347     0.17900
C256        C  0.07629127  0.17146558  0.65412202     0.89700
C257        C  0.10350498  0.18583890  0.63561430    -0.50500
C258        C  0.11862249  0.16485221  0.61686201     0.12600
C259        C  0.10505539  0.13134959  0.61851417     0.23600
C260        C  0.05477807  0.15635590  0.62953151    -0.51200
C261        C  0.06993716  0.13515517  0.61095542     0.12700
C262        C  0.09052540  0.14405929  0.67211437    -0.50800
C263        C  0.10534409  0.12297567  0.65358013     0.13300
H264        H  0.11018205  0.21030591  0.63716641     0.17800
H265        H  0.11735174  0.11407608  0.60343826     0.03600
H266        H  0.02979003  0.16094855  0.62787079     0.18100
H267        H  0.08863729  0.14128500  0.69736397     0.17900
C268        C  0.16334118  0.85079967  0.57363827     0.89700
C269        C  0.14808844  0.87611531  0.55320049    -0.50500
C270        C  0.12845841  0.89529262  0.56965458     0.12600
C271        C  0.12603100  0.88743922  0.60476597     0.23600
C272        C  0.17980441  0.86842975  0.60017035    -0.51200
C273        C  0.16030940  0.88775181  0.61647654     0.12700
C274        C  0.13602395  0.83365413  0.58904928    -0.50800
C275        C  0.11635976  0.85272734  0.60508530     0.13300
H276        H  0.15158965  0.87801062  0.52806748     0.17800
H277        H  0.10995486  0.90300073  0.61805537     0.03600
H278        H  0.20462346  0.86611920  0.60536485     0.18100
H279        H  0.13218582  0.80859898  0.58696389     0.17900
O280        O  0.02490162  0.02897293  0.42838088    -0.75300
C281        C  0.97303109  0.94192291  0.44661178     0.85800
O282        O  0.94117019  0.05740084  0.49957561    -0.76400
O283        O  0.96459404  0.95652788  0.54762131    -0.77900
O284        O  0.07297282  0.98370556  0.52181868    -0.77700
O285        O  0.06472104  0.03476390  0.46169178    -0.76300
Zn286      Zn  0.98907280  0.01139961  0.45478103     1.55700
O287        O  0.03904318  0.94421764  0.52711365    -0.77700
Cd288      Cd  0.04584298  0.01990939  0.50394109     1.59700
Cd289      Cd  0.97355193  0.03301162  0.52681115     1.59600
O290        O  0.04932301  0.05694722  0.53491755    -0.77700
O291        O  0.00099858  0.00669474  0.49878578    -1.88200
Cd292      Cd  0.99663894  0.96171752  0.51147856     1.59900
O293        O  0.00044938  0.06560106  0.55165736    -0.77600
O294        O  0.98079885  0.93454296  0.47444045    -0.76300
C295        C  0.93653186  0.05778388  0.47005793     0.86200
C296        C  0.05302821  0.03710901  0.43435129     0.85900
O297        O  0.97514542  0.96984841  0.43640041    -0.75200
C298        C  0.06643709  0.95574174  0.52980684     0.86700
O299        O  0.95280328  0.04148857  0.45112540    -0.75300
C300        C  0.02971312  0.07184625  0.55171349     0.86800
C301        C  0.94807504  0.97562678  0.56345759     0.87200
O302        O  0.94886147  0.00509552  0.55873126    -0.77800
O303        O  0.68119638  0.30664048  0.46639757    -0.75300
C304        C  0.71556060  0.23478618  0.53840129     0.85800
O305        O  0.72273552  0.36741882  0.53080763    -0.76400
O306        O  0.80572548  0.29409895  0.55291067    -0.77900
O307        O  0.77334578  0.25058127  0.44649333    -0.77700
O308        O  0.71668140  0.30692294  0.42816359    -0.76300
Zn309      Zn  0.70596259  0.29603267  0.50524776     1.55700
O310        O  0.79716747  0.24178108  0.49240489    -0.77700
Cd311      Cd  0.75679366  0.29556472  0.45354767     1.59700
Cd312      Cd  0.76143732  0.34567167  0.50969404     1.59600
O313        O  0.79052370  0.32640651  0.43934203    -0.77700
O314        O  0.74958369  0.30238366  0.49846780    -1.88200
Cd315      Cd  0.77424540  0.27160467  0.52275603     1.59900
O316        O  0.78257445  0.36740946  0.47102841    -0.77600
O317        O  0.74387540  0.24134457  0.54535765    -0.76300
C318        C  0.69850894  0.35448936  0.54288498     0.86200
C319        C  0.68880604  0.31129871  0.43796660     0.85900
O320        O  0.69876828  0.25221987  0.52092558    -0.75200
C321        C  0.79113461  0.23431486  0.46415133     0.86700
O322        O  0.69100657  0.32625807  0.53735017    -0.75300
C323        C  0.79546404  0.35467516  0.44714323     0.86800
C324        C  0.81116869  0.32312068  0.55760030     0.87200
O325        O  0.79628127  0.34466915  0.54339197    -0.77800
O326        O  0.96826587  0.82835298  0.69628465    -0.75300
C327        C  0.03870590  0.79677440  0.77029491     0.85800
O328        O  0.03385306  0.78278570  0.63741541    -0.76400
O329        O  0.05517621  0.70386709  0.71475316    -0.77900
O330        O  0.94789530  0.73757533  0.75589607    -0.77700
O331        O  0.92967423  0.79341983  0.69861081    -0.76300
Zn332      Zn  0.00701957  0.80366912  0.70763859     1.55700
O333        O  0.99395423  0.71445191  0.76576946    -0.77700
Cd334      Cd  0.95500803  0.75327156  0.71040796     1.59700
Cd335      Cd  0.01200270  0.74559220  0.66086669     1.59600
O336        O  0.94045179  0.71899925  0.68012015    -0.77700
O337        O  0.00018710  0.75977682  0.70340698    -1.88200
Cd338      Cd  0.02452576  0.73648679  0.73544949     1.59900
O339        O  0.97352627  0.72382334  0.63962374    -0.77600
O340        O  0.04589831  0.76826515  0.76522646    -0.76300
C341        C  0.04546449  0.80777593  0.64917963     0.86200
C342        C  0.93957491  0.82098112  0.69292325     0.85900
O343        O  0.02214280  0.81282179  0.75134347    -0.75200
C344        C  0.96555406  0.72038493  0.77282206     0.86700
O345        O  0.03923165  0.81691769  0.67680550    -0.75300
C346        C  0.94900898  0.71221069  0.65238955     0.86800
C347        C  0.05948133  0.69662363  0.68599224     0.87200
O348        O  0.04514730  0.71038721  0.66378591    -0.77800
C349        C  0.15411462  0.58227099  0.66179687     0.89700
C350        C  0.13550249  0.60842704  0.67780529    -0.50500
C351        C  0.11667225  0.62471677  0.65778732     0.12600
C352        C  0.11831256  0.61323945  0.62342469     0.23600
C353        C  0.12954304  0.56166816  0.64541177    -0.51200
C354        C  0.11081762  0.57797504  0.62514554     0.12700
C355        C  0.17199627  0.59816559  0.63524713    -0.50800
C356        C  0.15343758  0.61413897  0.61504587     0.13300
H357        H  0.13716017  0.61366941  0.70264665     0.17800
H358        H  0.10318688  0.62650250  0.60691939     0.03600
H359        H  0.12790058  0.53651541  0.64860273     0.18100
H360        H  0.19727859  0.59656402  0.63237668     0.17900
C361        C  0.16188418  0.35023102  0.42351231     0.89700
C362        C  0.17913667  0.36971131  0.39882434    -0.50500
C363        C  0.16001896  0.38976269  0.38297400     0.12600
C364        C  0.12534039  0.38848383  0.39335647     0.23600
C365        C  0.14541997  0.37405523  0.44493847    -0.51200
C366        C  0.12612258  0.39407697  0.42901193     0.12700
C367        C  0.13540393  0.33390921  0.40587967    -0.50800
C368        C  0.11619170  0.35382678  0.39031455     0.13300
H369        H  0.20405654  0.36757311  0.39404274     0.17800
H370        H  0.10961186  0.40465025  0.38038177     0.03600
H371        H  0.14786853  0.37431219  0.47026170     0.18100
H372        H  0.13177581  0.30873890  0.40613908     0.17900
C373        C  0.83686926  0.66342258  0.57398732     0.89700
C374        C  0.85276971  0.63809511  0.55409149    -0.50500
C375        C  0.87226483  0.61920267  0.57103278     0.12600
C376        C  0.87378623  0.62733374  0.60623136     0.23600
C377        C  0.81996185  0.64592108  0.60028560    -0.51200
C378        C  0.83921734  0.62694672  0.61723464     0.12700
C379        C  0.86367339  0.68091267  0.58989336    -0.50800
C380        C  0.88310606  0.66216065  0.60659715     0.13300
H381        H  0.84978866  0.63600644  0.52890630     0.17800
H382        H  0.88965742  0.61202824  0.62004147     0.03600
H383        H  0.79505176  0.64825259  0.60503452     0.18100
H384        H  0.86717750  0.70602721  0.58790915     0.17900
C385        C  0.84396667  0.43163694  0.33323466     0.89700
C386        C  0.86847758  0.45206527  0.34983629    -0.50500
C387        C  0.88702019  0.43562879  0.37009833     0.12600
C388        C  0.87953723  0.40039207  0.37157157     0.23600
C389        C  0.86256914  0.40551877  0.31715115    -0.51200
C390        C  0.88127664  0.38906527  0.33717586     0.12700
C391        C  0.82590763  0.41562778  0.35963371    -0.50800
C392        C  0.84442557  0.39956093  0.37983935     0.13300
H393        H  0.87005992  0.47725883  0.34694815     0.17800
H394        H  0.89458321  0.38705917  0.38809490     0.03600
H395        H  0.86105366  0.40046544  0.29226344     0.18100
H396        H  0.80064498  0.41741596  0.36253091     0.17900
C397        C  0.92200002  0.34440589  0.65613712     0.89700
C398        C  0.89538834  0.32985258  0.63699113    -0.50500
C399        C  0.88103850  0.35057827  0.61741745     0.12600
C400        C  0.89461275  0.38405503  0.61896316     0.23600
C401        C  0.94437999  0.35906753  0.63198787    -0.51200
C402        C  0.92988441  0.37999096  0.61256556     0.12700
C403        C  0.90732833  0.37214783  0.67322131    -0.50800
C404        C  0.89330848  0.39302896  0.65384173     0.13300
H405        H  0.88861646  0.30541547  0.63863170     0.17800
H406        H  0.88287650  0.40111204  0.60320858     0.03600
H407        H  0.96937019  0.35429259  0.63112444     0.18100
H408        H  0.90855675  0.37540869  0.69845197     0.17900
C409        C  0.07551163  0.66950379  0.34360997     0.89700
C410        C  0.05423427  0.65392718  0.36810690    -0.50500
C411        C  0.06983817  0.63337848  0.38705505     0.12600
C412        C  0.10513868  0.63052171  0.37979114     0.23600
C413        C  0.10204408  0.68482035  0.36224418    -0.51200
C414        C  0.11760897  0.66447739  0.38127682     0.12700
C415        C  0.09074338  0.64245148  0.32594792    -0.50800
C416        C  0.10601067  0.62191637  0.34475021     0.13300
H417        H  0.02913342  0.65791809  0.36960492     0.17800
H418        H  0.11783867  0.61377165  0.39511624     0.03600
H419        H  0.10798068  0.70946981  0.36055967     0.18100
H420        H  0.08924358  0.63952668  0.30068801     0.17900
O421        O  0.01950648  0.57735485  0.47421525    -0.75300
C422        C  0.93369523  0.55822046  0.53000181     0.85800
O423        O  0.05096364  0.50801264  0.55747865    -0.76400
O424        O  0.95029503  0.45709750  0.53590002    -0.77900
O425        O  0.97290214  0.48437795  0.42756891    -0.77700
O426        O  0.02533051  0.54361612  0.43477889    -0.76300
Zn427      Zn  0.00267180  0.55132433  0.51061129     1.55700
O428        O  0.93418597  0.47855566  0.46234394    -0.77700
Cd429      Cd  0.01008754  0.50168818  0.45380821     1.59700
Cd430      Cd  0.02610453  0.48020203  0.52578267     1.59600
O431        O  0.04661886  0.47006581  0.44921184    -0.77700
O432        O  0.99815606  0.50724411  0.49895047    -1.88200
Cd433      Cd  0.95331590  0.49388944  0.50449886     1.59900
O434        O  0.05813864  0.45544912  0.49811000    -0.77600
O435        O  0.92642044  0.53022412  0.52276408    -0.76300
C436        C  0.05080682  0.53748834  0.56214463     0.86200
C437        C  0.02776158  0.57101590  0.44621423     0.85900
O438        O  0.96124640  0.56904073  0.52598278    -0.75200
C439        C  0.94508301  0.47614484  0.43463624     0.86700
O440        O  0.03366079  0.55594890  0.54621323    -0.75300
C441        C  0.06275771  0.45416947  0.46859699     0.86800
C442        C  0.97021326  0.44198301  0.55214356     0.87200
O443        O  0.99953676  0.44780823  0.55114868    -0.77800
C444        C  0.66316591  0.35199417  0.07229116     0.89700
C445        C  0.64678144  0.37702848  0.05237708    -0.50500
C446        C  0.62713785  0.39571337  0.06941274     0.12600
C447        C  0.62594364  0.38769303  0.10461805     0.23600
C448        C  0.67997292  0.36984750  0.09842055    -0.51200
C449        C  0.66052439  0.38859060  0.11540712     0.12700
C450        C  0.63669146  0.33421295  0.08843587    -0.50800
C451        C  0.61711945  0.35278230  0.10517165     0.13300
H452        H  0.64959787  0.37909662  0.02717186     0.17800
H453        H  0.60994682  0.40282352  0.11848501     0.03600
H454        H  0.70492544  0.36784231  0.10309099     0.18100
H455        H  0.63351785  0.30904321  0.08660745     0.17900
C456        C  0.57767129  0.67115193  0.15619738     0.89700
C457        C  0.60436843  0.68595517  0.13733086    -0.50500
C458        C  0.61860649  0.66552453  0.11735239     0.12600
C459        C  0.60484376  0.63214061  0.11818298     0.23600
C460        C  0.55520862  0.65710154  0.13176012    -0.51200
C461        C  0.56959597  0.63651631  0.11188660     0.12700
C462        C  0.59223915  0.64298276  0.17268079    -0.50800
C463        C  0.60620545  0.62247885  0.15284550     0.13300
H464        H  0.61136233  0.71028348  0.13954429     0.17800
H465        H  0.61650634  0.61535693  0.10207847     0.03600
H466        H  0.53023025  0.66196794  0.13105802     0.18100
H467        H  0.59119170  0.63929253  0.19785892     0.17900
C468        C  0.42478545  0.34551930  0.84333117     0.89700
C469        C  0.44666956  0.36125645  0.86716283    -0.50500
C470        C  0.43160511  0.38212873  0.88617925     0.12600
C471        C  0.39610245  0.38500840  0.87971531     0.23600
C472        C  0.39860811  0.33050615  0.86267517    -0.51200
C473        C  0.38347798  0.35106759  0.88181724     0.12700
C474        C  0.40929796  0.37245803  0.82570766    -0.50800
C475        C  0.39452563  0.39328763  0.84459130     0.13300
H476        H  0.47178875  0.35720087  0.86810076     0.17800
H477        H  0.38381218  0.40198222  0.89512624     0.03600
H478        H  0.39246938  0.30588817  0.86124634     0.18100
H479        H  0.41032016  0.37511859  0.80039548     0.17900
C480        C  0.33758472  0.66390464  0.92259704     0.89700
C481        C  0.32072037  0.64526842  0.89700909    -0.50500
C482        C  0.33998095  0.62540008  0.88109407     0.12600
C483        C  0.37442873  0.62605057  0.89232299     0.23600
C484        C  0.35326800  0.63938453  0.94376651    -0.51200
C485        C  0.37274427  0.61961272  0.92777448     0.12700
C486        C  0.36467556  0.68039568  0.90606170    -0.50800
C487        C  0.38407386  0.66065491  0.89048512     0.13300
H488        H  0.29591452  0.64770886  0.89180868     0.17800
H489        H  0.39031352  0.61003595  0.87934532     0.03600
H490        H  0.35037268  0.63863082  0.96903450     0.18100
H491        H  0.36863958  0.70549138  0.90718429     0.17900
C492        C  0.65581920  0.58161318  0.83559144     0.89700
C493        C  0.63101815  0.56185223  0.85255286    -0.50500
C494        C  0.61269378  0.57894067  0.87247812     0.12600
C495        C  0.62070238  0.61410249  0.87328232     0.23600
C496        C  0.63764176  0.60765960  0.81899940    -0.51200
C497        C  0.61919581  0.62476725  0.83866683     0.12700
C498        C  0.67411360  0.59785427  0.86167427    -0.50800
C499        C  0.65582688  0.61459607  0.88153921     0.13300
H500        H  0.62903735  0.53663959  0.85009086     0.17800
H501        H  0.60583778  0.62799025  0.88951138     0.03600
H502        H  0.63926338  0.61221365  0.79401926     0.18100
H503        H  0.69935479  0.59579935  0.86457883     0.17900
C504        C  0.34370942  0.43111583  0.16220879     0.89700
C505        C  0.36294344  0.40530124  0.17796332    -0.50500
C506        C  0.38209394  0.38960484  0.15779968     0.12600
C507        C  0.38002901  0.40123799  0.12349742     0.23600
C508        C  0.36773440  0.45237887  0.14589672    -0.51200
C509        C  0.38674558  0.43662253  0.12548442     0.12700
C510        C  0.32604183  0.41504962  0.13562132    -0.50800
C511        C  0.34488679  0.39968064  0.11519275     0.13300
H512        H  0.36160953  0.39997609  0.20280632     0.17800
H513        H  0.39541339  0.38846280  0.10684303     0.03600
H514        H  0.36890522  0.47752367  0.14934565     0.18100
H515        H  0.30073190  0.41624827  0.13279944     0.17900
O516        O  0.46351080  0.57138925  0.97225901    -0.75300
C517        C  0.52804357  0.57424136  0.05266997     0.85800
O518        O  0.55358887  0.51026477  0.94162299    -0.76400
O519        O  0.54856388  0.47340673  0.05007690    -0.77900
O520        O  0.43634711  0.48049622  0.03542406    -0.77700
O521        O  0.42883699  0.53252753  0.97612462    -0.76300
Zn522      Zn  0.50491319  0.55379682  0.98784977     1.55700
O523        O  0.47430055  0.48666982  0.07091561    -0.77700
Cd524      Cd  0.45586140  0.49627697  0.99379008     1.59700
Cd525      Cd  0.52847459  0.48251217  0.97311329     1.59600
O526        O  0.45279289  0.45999579  0.96199952    -0.77700
O527        O  0.50049611  0.50976349  0.99972056    -1.88200
Cd528      Cd  0.51168925  0.50454949  0.04511550     1.59900
O529        O  0.50204772  0.45006810  0.94732101    -0.77600
O530        O  0.52570738  0.54689838  0.06428158    -0.76300
C531        C  0.55345324  0.53971917  0.93683567     0.86200
C532        C  0.43591742  0.56050075  0.96874974     0.85900
O533        O  0.52068054  0.58018322  0.02435224    -0.75200
C534        C  0.44669442  0.47815328  0.06331386     0.86700
O535        O  0.53626992  0.55829393  0.95259599    -0.75300
C536        C  0.47263627  0.44465765  0.94592607     0.86800
C537        C  0.56467290  0.45720485  0.03090970     0.87200
O538        O  0.56013712  0.45803912  0.00136399    -0.77800
O539        O  0.30231808  0.47622135  0.67813545    -0.75300
C540        C  0.22665967  0.54482658  0.71090613     0.85800
O541        O  0.35982704  0.54452285  0.72305016    -0.76400
O542        O  0.28287215  0.56254845  0.80301121    -0.77900
O543        O  0.24553449  0.45421649  0.76972390    -0.77700
O544        O  0.30249069  0.43797485  0.71348584    -0.76300
Zn545      Zn  0.29024047  0.51481085  0.70298319     1.55700
O546        O  0.23375793  0.49980398  0.79271656    -0.77700
Cd547      Cd  0.29062438  0.46299459  0.75378371     1.59700
Cd548      Cd  0.33798797  0.52158099  0.76057055     1.59600
O549        O  0.32190393  0.44979547  0.78778081    -0.77700
O550        O  0.29564037  0.50824730  0.74690572    -1.88200
Cd551      Cd  0.26292939  0.53135645  0.77059707     1.59900
O552        O  0.36119123  0.48415884  0.78242213    -0.77600
O553        O  0.23205948  0.55205148  0.73938248    -0.76300
C554        C  0.34728458  0.55560829  0.69817001     0.86200
C555        C  0.30690880  0.44777140  0.68562751     0.85900
O556        O  0.24572233  0.52864734  0.69455586    -0.75200
C557        C  0.22777827  0.47123572  0.78670193     0.86700
O558        O  0.31984114  0.54814984  0.68926423    -0.75300
C559        C  0.34940404  0.45930437  0.79430238     0.86800
C560        C  0.31156181  0.56796469  0.80979297     0.87200
O561        O  0.33413917  0.55456763  0.79569859    -0.77800
C562        C  0.66413681  0.66230642  0.42101979     0.89700
C563        C  0.64812711  0.63834790  0.44270378    -0.50500
C564        C  0.62658961  0.62000169  0.42755384     0.12600
C565        C  0.62340058  0.62716804  0.39230621     0.23600
C566        C  0.67837548  0.64310703  0.39424483    -0.51200
C567        C  0.65713298  0.62460760  0.37912891     0.12700
C568        C  0.63722076  0.68058058  0.40625823    -0.50800
C569        C  0.61577940  0.66234847  0.39157526     0.13300
H570        H  0.65241924  0.63694186  0.46774159     0.17800
H571        H  0.60587384  0.61237276  0.38000056     0.03600
H572        H  0.70298132  0.64411056  0.38777331     0.18100
H573        H  0.63492623  0.70586249  0.40783793     0.17900
C574        C  0.65720375  0.43048960  0.66023819     0.89700
C575        C  0.63365233  0.45274490  0.64449527    -0.50500
C576        C  0.61347788  0.43782226  0.62454713     0.12600
C577        C  0.61864798  0.40220143  0.62243397     0.23600
C578        C  0.63725268  0.40542486  0.67645132    -0.51200
C579        C  0.61696333  0.39056298  0.65670873     0.12700
C580        C  0.67346499  0.41369840  0.63319904    -0.50800
C581        C  0.65343765  0.39913920  0.61329039     0.13300
H582        H  0.63367601  0.47792259  0.64790647     0.17800
H583        H  0.60235039  0.39008048  0.60615129     0.03600
H584        H  0.63911096  0.39983797  0.70120063     0.18100
H585        H  0.69871442  0.41384461  0.62969125     0.17900
C586        C  0.42481924  0.67186089  0.65387070     0.89700
C587        C  0.44553033  0.65484515  0.62980634    -0.50500
C588        C  0.42902921  0.63503185  0.61076493     0.12600
C589        C  0.39348395  0.63440981  0.61745119     0.23600
C590        C  0.39951009  0.68855583  0.63471298    -0.51200
C591        C  0.38298090  0.66900944  0.61561944     0.12700
C592        C  0.40771481  0.64585711  0.67142547    -0.50800
C593        C  0.39157215  0.62613439  0.65249613     0.13300
H594        H  0.47086036  0.65723524  0.62879200     0.17800
H595        H  0.38004507  0.61828517  0.60207198     0.03600
H596        H  0.39485255  0.71347688  0.63634226     0.18100
H597        H  0.40885833  0.64283348  0.69669161     0.17900
C598        C  0.34361236  0.58456974  0.33457931     0.89700
C599        C  0.36339796  0.61019106  0.31907519    -0.50500
C600        C  0.38288319  0.62525763  0.33946618     0.12600
C601        C  0.38068776  0.61319631  0.37355376     0.23600
C602        C  0.36722222  0.56262335  0.35065021    -0.51200
C603        C  0.38660206  0.57772076  0.37122686     0.12700
C604        C  0.32638475  0.60074471  0.36139170    -0.50800
C605        C  0.34567152  0.61544862  0.38189118     0.13300
H606        H  0.36196654  0.61603596  0.29435833     0.17800
H607        H  0.39633704  0.62546894  0.39035096     0.03600
H608        H  0.36772489  0.53747939  0.34705423     0.18100
H609        H  0.30107274  0.60003547  0.36434899     0.17900
C610        C  0.57722689  0.34332568  0.34411830     0.89700
C611        C  0.60324141  0.32689328  0.36240661    -0.50500
C612        C  0.61980226  0.34647464  0.38137368     0.12600
C613        C  0.60870891  0.38095245  0.38021665     0.23600
C614        C  0.55678939  0.35961949  0.36886426    -0.51200
C615        C  0.57333627  0.37951982  0.38775680     0.12700
C616        C  0.59336697  0.36981589  0.32645970    -0.50800
C617        C  0.60959357  0.38965712  0.34518733     0.13300
H618        H  0.60816358  0.30203867  0.36051573     0.17800
H619        H  0.62222107  0.39711780  0.39548547     0.03600
H620        H  0.53154781  0.35668358  0.37046370     0.18100
H621        H  0.59167784  0.37296215  0.30123606     0.17900
C622        C  0.33461348  0.35138692  0.57468083     0.89700
C623        C  0.31891396  0.37091045  0.60032174    -0.50500
C624        C  0.33937699  0.38920577  0.61666217     0.12600
C625        C  0.37385831  0.38615240  0.60574491     0.23600
C626        C  0.35226269  0.37494178  0.55394533    -0.51200
C627        C  0.37302004  0.39309395  0.57029345     0.12700
C628        C  0.36023812  0.33280772  0.59128389    -0.50800
C629        C  0.38089973  0.35086271  0.60727581     0.13300
H630        H  0.29392160  0.37028049  0.60516827     0.17800
H631        H  0.39072777  0.40083570  0.61905623     0.03600
H632        H  0.34949065  0.37631591  0.52868937     0.18100
H633        H  0.36228921  0.30749224  0.58996637     0.17900
O634        O  0.46488514  0.44259899  0.52610544    -0.75300
C635        C  0.53146410  0.44296760  0.44629780     0.85800
O636        O  0.55201259  0.50828318  0.55750803    -0.76400
O637        O  0.54722327  0.54417148  0.44874575    -0.77900
O638        O  0.43452079  0.53246627  0.46193965    -0.77700
O639        O  0.42855419  0.47986501  0.52164704    -0.76300
Zn640      Zn  0.50578592  0.46226606  0.51076921     1.55700
O641        O  0.47344966  0.52839499  0.42714762    -0.77700
Cd642      Cd  0.45404671  0.51749834  0.50407699     1.59700
Cd643      Cd  0.52612492  0.53465291  0.52532440     1.59600
O644        O  0.44912758  0.55399053  0.53580567    -0.77700
O645        O  0.49946310  0.50607733  0.49862344    -1.88200
Cd646      Cd  0.51120555  0.51179380  0.45333958     1.59900
O647        O  0.49797372  0.56627669  0.55017617    -0.77600
O648        O  0.52757814  0.47004663  0.43444431    -0.76300
C649        C  0.55323550  0.47884633  0.56229326     0.86200
C650        C  0.43677210  0.45226443  0.52934509     0.85900
O651        O  0.52391176  0.43676700  0.47453743    -0.75200
C652        C  0.44534101  0.53562430  0.43427235     0.86700
O653        O  0.53700474  0.45952668  0.54640007    -0.75300
C654        C  0.46836878  0.57048047  0.55156005     0.86800
C655        C  0.56275389  0.56080247  0.46804190     0.87200
O656        O  0.55767297  0.56002822  0.49750813    -0.77800
O657        O  0.48027179  0.70342727  0.74484007    -0.75300
C658        C  0.56232696  0.69447149  0.80509576     0.85800
O659        O  0.46688473  0.72939338  0.85975132    -0.76400
O660        O  0.55874990  0.79699144  0.82020256    -0.77900
O661        O  0.50755974  0.80147191  0.73423924    -0.77700
O662        O  0.45544193  0.74793658  0.73294370    -0.76300
Zn663      Zn  0.49493240  0.71116584  0.78911072     1.65300
O664        O  0.55358899  0.77842079  0.74446440    -0.77700
Cd665      Cd  0.47675603  0.77880604  0.76368740     1.59700
Cd666      Cd  0.48819014  0.76779712  0.83804589     1.59600
O667        O  0.44584954  0.81074228  0.78474214    -0.77700
O668        O  0.50088229  0.75492236  0.79534558    -1.88200
Cd669      Cd  0.54597269  0.76239090  0.78961913     1.59900
O670        O  0.45425911  0.80237738  0.83571691    -0.77600
O671        O  0.57177716  0.72253350  0.80143383    -0.76300
C672        C  0.45568070  0.70473888  0.84693269     0.86200
C673        C  0.46315127  0.71980999  0.72667211     0.85900
O674        O  0.53399095  0.68667338  0.80003431    -0.75200
C675        C  0.53603945  0.79563607  0.72747070     0.86700
O676        O  0.46245225  0.69651356  0.81912238    -0.75300
C677        C  0.44056029  0.81688009  0.81357144     0.86800
C678        C  0.54968272  0.80317533  0.84789487     0.87200
O679        O  0.52567815  0.79027432  0.86040423    -0.77800
O680        O  0.24944671  0.98521930  0.19272926    -0.75300
C681        C  0.30687273  0.06855834  0.18472802     0.85800
O682        O  0.36325648  0.97367573  0.22395715    -0.76400
O683        O  0.31994106  0.06753537  0.28707508    -0.77900
O684        O  0.23378377  0.01378221  0.29041679    -0.77700
O685        O  0.23606780  0.96115190  0.23731553    -0.76300
Zn686      Zn  0.29309052  0.00092898  0.20201092     1.55700
O687        O  0.24409071  0.05996955  0.26797626    -0.77700
Cd688      Cd  0.26497834  0.98352760  0.26916793     1.59700
Cd689      Cd  0.33962869  0.99630301  0.26063296     1.59600
O690        O  0.28551072  0.95380080  0.30260800    -0.77700
O691        O  0.29708098  0.00792045  0.24600375    -1.88200
Cd692      Cd  0.28975822  0.05294535  0.25259355     1.59900
O693        O  0.33654547  0.96392366  0.29655062    -0.77600
O694        O  0.30120643  0.07828597  0.21238402    -0.76300
C695        C  0.35168905  0.96214591  0.19880818     0.86200
C696        C  0.23083551  0.96822896  0.20877244     0.85900
O697        O  0.30398225  0.03987430  0.17729925    -0.75200
C698        C  0.22682604  0.04218100  0.28468703     0.86700
O699        O  0.32430825  0.96882041  0.18916086    -0.75300
C700        C  0.31419398  0.94980763  0.31033923     0.86800
C701        C  0.34776749  0.05920867  0.29385404     0.87200
O702        O  0.36077867  0.03495121  0.28206606    -0.77800
O703        O  0.17944483  0.80816385  0.96658164    -0.75300
C704        C  0.21396491  0.73471416  0.03650970     0.85800
O705        O  0.22204473  0.86760766  0.03255422    -0.76400
O706        O  0.30471697  0.79346253  0.05278854    -0.77900
O707        O  0.27196225  0.75270798  0.94522385    -0.77700
O708        O  0.21453072  0.80892718  0.92801814    -0.76300
Zn709      Zn  0.20460858  0.79692605  0.00499466     1.55700
O710        O  0.29572138  0.74299329  0.99100177    -0.77700
Cd711      Cd  0.25506289  0.79754432  0.95305393     1.59700
Cd712      Cd  0.26072879  0.84627160  0.01085716     1.59600
O713        O  0.28874905  0.82880023  0.93941156    -0.77700
O714        O  0.24830043  0.80343229  0.99828083    -1.88200
Cd715      Cd  0.27280987  0.77203032  0.02205764     1.59900
O716        O  0.28255039  0.86867344  0.97291910    -0.77600
O717        O  0.24229724  0.74104389  0.04365463    -0.76300
C718        C  0.19765063  0.85448766  0.04413084     0.86200
C719        C  0.18669836  0.81304887  0.93810681     0.85900
O720        O  0.19721806  0.75272671  0.01959342    -0.75200
C721        C  0.28974047  0.73609228  0.96259546     0.86700
O722        O  0.18993629  0.82649885  0.03773385    -0.75300
C723        C  0.29484416  0.85649304  0.94843107     0.86800
C724        C  0.31058300  0.82231044  0.05807967     0.87200
O725        O  0.29573474  0.84428524  0.04449122    -0.77800
C726        C  0.34487843  0.93088311  0.83428430     0.89700
C727        C  0.36950216  0.95203317  0.84987139    -0.50500
C728        C  0.38820010  0.93648365  0.87072435     0.12600
C729        C  0.38063088  0.90136887  0.87384269     0.23600
C730        C  0.36345119  0.90407022  0.81931179    -0.51200
C731        C  0.38227499  0.88857199  0.83999120     0.12700
C732        C  0.32695674  0.91604819  0.86143504    -0.50800
C733        C  0.34552338  0.90084892  0.88224564     0.13300
H734        H  0.37118565  0.97704336  0.84573857     0.17800
H735        H  0.39574555  0.88874390  0.89085559     0.03600
H736        H  0.36187845  0.89792112  0.79467663     0.18100
H737        H  0.30167381  0.91774846  0.86421647     0.17900
C738        C  0.66157527  0.85187373  0.92469809     0.89700
C739        C  0.67805268  0.87053956  0.89894370    -0.50500
C740        C  0.65851610  0.89005889  0.88296789     0.12600
C741        C  0.62405046  0.88895477  0.89427295     0.23600
C742        C  0.64566271  0.87633130  0.94576004    -0.51200
C743        C  0.62586872  0.89574460  0.92970172     0.12700
C744        C  0.63470916  0.83487120  0.90843651    -0.50800
C745        C  0.61490612  0.85411365  0.89278982     0.13300
H746        H  0.70292143  0.86855659  0.89383336     0.17800
H747        H  0.60791310  0.90465398  0.88123204     0.03600
H748        H  0.64885457  0.87746569  0.97097893     0.18100
H749        H  0.63128138  0.80969547  0.90963261     0.17900
C750        C  0.42475404  0.84289233  0.15371285     0.89700
C751        C  0.39796325  0.82808424  0.13493481    -0.50500
C752        C  0.38247666  0.84886021  0.11625986     0.12600
C753        C  0.39528900  0.88264741  0.11822864     0.23600
C754        C  0.44607015  0.85869668  0.12930829    -0.51200
C755        C  0.43050660  0.87969839  0.11076844     0.12700
C756        C  0.40982885  0.86986238  0.17180541    -0.50800
C757        C  0.39468876  0.89077824  0.15335282     0.13300
H758        H  0.39178587  0.80347601  0.13630360     0.17800
H759        H  0.38267265  0.89975657  0.10323284     0.03600
H760        H  0.47115089  0.85463406  0.12769898     0.18100
H761        H  0.41162499  0.87256423  0.19707049     0.17900
C762        C  0.33700227  0.16482907  0.07393382     0.89700
C763        C  0.35322455  0.14008492  0.05355743    -0.50500
C764        C  0.37290088  0.12110267  0.07015135     0.12600
C765        C  0.37441342  0.12857665  0.10542836     0.23600
C766        C  0.32035354  0.14653041  0.09991867    -0.51200
C767        C  0.33990763  0.12742785  0.11643842     0.12700
C768        C  0.36361913  0.18236022  0.09017407    -0.50800
C769        C  0.38332594  0.16348986  0.10644629     0.13300
H770        H  0.35019086  0.13834667  0.02835154     0.17800
H771        H  0.39052077  0.11318006  0.11886488     0.03600
H772        H  0.29540110  0.14832417  0.10466195     0.18100
H773        H  0.36696335  0.20751203  0.08847613     0.17900
C774        C  0.57714249  0.17159961  0.84309503     0.89700
C775        C  0.55472983  0.15603610  0.86662600    -0.50500
C776        C  0.56927885  0.13458609  0.88543476     0.12600
C777        C  0.60461672  0.13095485  0.87909316     0.23600
C778        C  0.60356322  0.18569211  0.86282188    -0.51200
C779        C  0.61799094  0.16443277  0.88173847     0.12700
C780        C  0.59209382  0.14451519  0.82519641    -0.50800
C781        C  0.60618215  0.12313906  0.84396077     0.13300
H782        H  0.52971439  0.16067678  0.86755519     0.17800
H783        H  0.61640823  0.11348070  0.89433849     0.03600
H784        H  0.61031264  0.21017162  0.86186364     0.18100
H785        H  0.59110511  0.14210191  0.79985880     0.17900
C786        C  0.65541796  0.08154363  0.16372949     0.89700
C787        C  0.63667489  0.10741049  0.18001446    -0.50500
C788        C  0.61803043  0.12408466  0.16014959     0.12600
C789        C  0.61994562  0.11318940  0.12560015     0.23600
C790        C  0.63100973  0.06124309  0.14674046    -0.51200
C791        C  0.61247351  0.07788361  0.12658846     0.12700
C792        C  0.67356721  0.09791313  0.13761414    -0.50800
C793        C  0.65513573  0.11423595  0.11752305     0.13300
H794        H  0.63810996  0.11219123  0.20496317     0.17800
H795        H  0.60495119  0.12673006  0.10920328     0.03600
H796        H  0.62935674  0.03603635  0.14946023     0.18100
H797        H  0.69886072  0.09629764  0.13489703     0.17900
O798        O  0.47514510  0.98551930  0.92804317    -0.75300
C799        C  0.52769564  0.07245127  0.94508612     0.85800
O800        O  0.55864976  0.95705227  0.99896875    -0.76400
O801        O  0.53645165  0.05830674  0.04633117    -0.77900
O802        O  0.42763525  0.03271025  0.02155990    -0.77700
O803        O  0.43501145  0.98112023  0.96125138    -0.76300
Zn804      Zn  0.51116944  0.00314082  0.95398360     1.55700
O805        O  0.46221130  0.07169363  0.02636393    -0.77700
Cd806      Cd  0.45407482  0.99594122  0.00349139     1.59700
Cd807      Cd  0.52631979  0.98180730  0.02599340     1.59600
O808        O  0.45016058  0.95888772  0.03463890    -0.77700
O809        O  0.49916408  0.00839003  0.99795581    -1.88200
Cd810      Cd  0.50420943  0.05342069  0.01030797     1.59900
O811        O  0.49908718  0.94943346  0.05075204    -0.77600
O812        O  0.52018076  0.08009412  0.97292261    -0.76300
C813        C  0.56339518  0.95639160  0.96947535     0.86200
C814        C  0.44685689  0.97799511  0.93403552     0.85900
O815        O  0.52527634  0.04446340  0.93509269    -0.75200
C816        C  0.43468160  0.06058955  0.02947394     0.86700
O817        O  0.54728467  0.97268151  0.95039002    -0.75300
C818        C  0.46974128  0.94360773  0.05116061     0.86800
C819        C  0.55241904  0.03902902  0.06251458     0.87200
O820        O  0.55108411  0.00953562  0.05803942    -0.77800
O821        O  0.97609648  0.81090180  0.25241523    -0.75300
C822        C  0.05930849  0.82172267  0.19483347     0.85800
O823        O  0.96535134  0.78113027  0.13852857    -0.76400
O824        O  0.06079657  0.72007941  0.18071163    -0.77900
O825        O  0.00725140  0.71274430  0.26578457    -0.77700
O826        O  0.95384528  0.76551534  0.26613122    -0.76300
Zn827      Zn  0.99207850  0.80253058  0.20885514     1.55700
O828        O  0.05273733  0.73722519  0.25643832    -0.77700
Cd829      Cd  0.97608073  0.73463678  0.23605303     1.59700
Cd830      Cd  0.98839915  0.74448944  0.16166486     1.59600
O831        O  0.94584014  0.70179639  0.21520036    -0.77700
O832        O  0.99990868  0.75883329  0.20426980    -1.88200
Cd833      Cd  0.04524886  0.75350977  0.21132986     1.59900
O834        O  0.95598361  0.70855970  0.16430976    -0.77600
O835        O  0.06974482  0.79434120  0.20034483    -0.76300
C836        C  0.95324422  0.80579347  0.15046779     0.86200
C837        C  0.95985010  0.79429744  0.27117456     0.85900
O838        O  0.03041007  0.82840518  0.19799717    -0.75200
C839        C  0.03551568  0.71920298  0.27292657     0.86700
O840        O  0.95957285  0.81506307  0.17802964    -0.75300
C841        C  0.94168727  0.69460166  0.18642089     0.86800
C842        C  0.05233449  0.71296572  0.15304508     0.87200
O843        O  0.02743306  0.72379072  0.14033424    -0.77800
O844        O  0.80266682  0.26146575  0.97596385    -0.75300
C845        C  0.81209793  0.20404450  0.06016090     0.85800
O846        O  0.77741380  0.14616028  0.96746683    -0.76400
O847        O  0.71014744  0.18823286  0.05873561    -0.77900
O848        O  0.70476102  0.27283961  0.00381793    -0.77700
O849        O  0.75787529  0.27236612  0.95105581    -0.76300
Zn850      Zn  0.79512538  0.21790111  0.99253368     1.55700
O851        O  0.72794288  0.26407845  0.05008045    -0.77700
Cd852      Cd  0.72730195  0.24236309  0.97401456     1.59700
Cd853      Cd  0.73890505  0.16836649  0.98834710     1.59600
O854        O  0.69524153  0.21987649  0.94446738    -0.77700
O855        O  0.75138568  0.21164442  0.99910167    -1.88200
Cd856      Cd  0.74401636  0.21886358  0.04395485     1.59900
O857        O  0.70384504  0.16933140  0.95484463    -0.77600
O858        O  0.78408846  0.20817733  0.06965444    -0.76300
C859        C  0.80202636  0.15870538  0.95576103     0.86200
C860        C  0.78613964  0.27893351  0.95826317     0.85900
O861        O  0.81986552  0.20829705  0.03170861    -0.75200
C862        C  0.71073049  0.28050612  0.03201595     0.86700
O863        O  0.80994407  0.18681444  0.96133272    -0.75300
C864        C  0.68918940  0.19088317  0.94040579     0.86800
C865        C  0.70486003  0.15997826  0.05105087     0.87200
O866        O  0.71755799  0.14706320  0.02716274    -0.77800
O867        O  0.25115246  0.02929743  0.69267670    -0.75300
C868        C  0.19356955  0.94604589  0.68501899     0.85800
O869        O  0.13727545  0.04010192  0.72396755    -0.76400
O870        O  0.18125290  0.94740379  0.78769959    -0.77900
O871        O  0.26685330  0.99961806  0.79129557    -0.77700
O872        O  0.26571280  0.05207104  0.73760485    -0.76300
Zn873      Zn  0.20764068  0.01364005  0.70218819     1.55700
O874        O  0.25660010  0.95391006  0.76789562    -0.77700
Cd875      Cd  0.23632469  0.03039829  0.76957288     1.59700
Cd876      Cd  0.16147969  0.01831392  0.76068842     1.59600
O877        O  0.21575049  0.06070386  0.80259327    -0.77700
O878        O  0.20399630  0.00655002  0.74616168    -1.88200
Cd879      Cd  0.21102405  0.96150009  0.75273709     1.59900
O880        O  0.16465714  0.05128472  0.79584615    -0.77600
O881        O  0.19913069  0.93625372  0.71266636    -0.76300
C882        C  0.14873481  0.05186400  0.69889516     0.86200
C883        C  0.27031109  0.04557214  0.70880352     0.85900
O884        O  0.19668655  0.97470089  0.67758234    -0.75200
C885        C  0.27372813  0.97126067  0.78517365     0.86700
O886        O  0.17627433  0.04566923  0.68937135    -0.75300
C887        C  0.18699154  0.06519407  0.80982260     0.86800
C888        C  0.15371940  0.95614567  0.79507598     0.87200
O889        O  0.14062532  0.98030314  0.78323411    -0.77800
C890        C  0.16279319  0.16226473  0.92187421     0.89700
C891        C  0.14623881  0.13908276  0.94396867    -0.50500
C892        C  0.12598201  0.11938959  0.92877383     0.12600
C893        C  0.12454945  0.12456791  0.89304150     0.23600
C894        C  0.17891870  0.14211996  0.89697269    -0.51200
C895        C  0.15896792  0.12237157  0.88175001     0.12700
C896        C  0.13627013  0.17901390  0.90472537    -0.50800
C897        C  0.11614483  0.15941146  0.88991634     0.13300
H898        H  0.14918552  0.13917467  0.96924113     0.17800
H899        H  0.10808622  0.10867771  0.88063708     0.03600
H900        H  0.20373194  0.14372869  0.89147738     0.18100
H901        H  0.13320662  0.20425719  0.90488151     0.17900
C902        C  0.15692711  0.93058113  0.16127990     0.89700
C903        C  0.13245562  0.95192429  0.14572303    -0.50500
C904        C  0.11206540  0.93607526  0.12673567     0.12600
C905        C  0.11803227  0.90053928  0.12524273     0.23600
C906        C  0.13803306  0.90551754  0.17862901    -0.51200
C907        C  0.11755585  0.88974601  0.15984694     0.12700
C908        C  0.17284209  0.91355209  0.13423456    -0.50800
C909        C  0.15266330  0.89809643  0.11520996     0.13300
H910        H  0.13196474  0.97716279  0.14858796     0.17800
H911        H  0.10157198  0.88768033  0.10971025     0.03600
H912        H  0.14057402  0.90071359  0.20348331     0.18100
H913        H  0.19797398  0.91427054  0.13000248     0.17900
C914        C  0.92184699  0.17006971  0.15617608     0.89700
C915        C  0.94241385  0.15400041  0.13138237    -0.50500
C916        C  0.92580378  0.13495863  0.11168135     0.12600
C917        C  0.89031670  0.13404748  0.11853518     0.23600
C918        C  0.89649351  0.18750105  0.13784492    -0.51200
C919        C  0.87994580  0.16873166  0.11804555     0.12700
C920        C  0.90487449  0.14347552  0.17283687    -0.50800
C921        C  0.88862634  0.12447488  0.15327459     0.13300
H922        H  0.96773901  0.15641453  0.13033491     0.17800
H923        H  0.87678600  0.11854064  0.10260955     0.03600
H924        H  0.89204622  0.21239770  0.14025892     0.18100
H925        H  0.90610368  0.13957915  0.19798320     0.17900
C926        C  0.83401944  0.85157188  0.07737032     0.89700
C927        C  0.81946913  0.87075214  0.10395317    -0.50500
C928        C  0.84059038  0.88922653  0.11922690     0.12600
C929        C  0.87440225  0.88674382  0.10635199     0.23600
C930        C  0.85011307  0.87545621  0.05579614    -0.51200
C931        C  0.87142595  0.89385584  0.07105720     0.12700
C932        C  0.86079110  0.83326522  0.09244192    -0.50800
C933        C  0.88203531  0.85156475  0.10735073     0.13300
H934        H  0.79481303  0.86970047  0.11023428     0.17800
H935        H  0.89177504  0.90162441  0.11877073     0.03600
H936        H  0.84589982  0.87691359  0.03074425     0.18100
H937        H  0.86309611  0.80798375  0.09095439     0.17900
C938        C  0.07544197  0.84548922  0.84347468     0.89700
C939        C  0.10081496  0.82868484  0.86238609    -0.50500
C940        C  0.11693912  0.84794438  0.88206691     0.12600
C941        C  0.10602989  0.88246064  0.88101201     0.23600
C942        C  0.05432632  0.86161270  0.86776383    -0.51200
C943        C  0.07041299  0.88115504  0.88742429     0.12700
C944        C  0.09229605  0.87207506  0.82668166    -0.50800
C945        C  0.10810284  0.89152392  0.84615084     0.13300
H946        H  0.10581756  0.80387426  0.86017231     0.17800
H947        H  0.11918078  0.89836131  0.89686487     0.03600
H948        H  0.02903507  0.85877551  0.86857847     0.18100
H949        H  0.09155680  0.87546236  0.80144229     0.17900
C950        C  0.84337537  0.08345962  0.83823616     0.89700
C951        C  0.86217583  0.10908951  0.82176459    -0.50500
C952        C  0.88236237  0.12445210  0.84112067     0.12600
C953        C  0.88174153  0.11268318  0.87540803     0.23600
C954        C  0.86777983  0.06181679  0.85336802    -0.51200
C955        C  0.88782293  0.07721240  0.87303058     0.12700
C956        C  0.82708270  0.09960161  0.86562813    -0.50800
C957        C  0.84704955  0.11463687  0.88523000     0.13300
H958        H  0.85975497  0.11460139  0.79704199     0.17800
H959        H  0.89800224  0.12519492  0.89142740     0.03600
H960        H  0.86826849  0.03663783  0.84998190     0.18100
H961        H  0.80191646  0.09866966  0.86959381     0.17900
O962        O  0.97458740  0.07749539  0.02468807    -0.75300
C963        C  0.06217913  0.06118923  0.97105335     0.85800
O964        O  0.94715946  0.00643685  0.94088167    -0.76400
O965        O  0.04867825  0.95986191  0.96390956    -0.77900
O966        O  0.02316031  0.98486300  0.07233630    -0.77700
O967        O  0.97006879  0.04417640  0.06466062    -0.76300
Zn968      Zn  0.99287912  0.05184816  0.98870979     1.55700
O969        O  0.06231382  0.98073183  0.03781071    -0.77700
Cd970      Cd  0.98596132  0.00225090  0.04578087     1.59700
Cd971      Cd  0.97180217  0.97956139  0.97353790     1.59600
O972        O  0.94954913  0.97039188  0.04975123    -0.77700
O973        O  0.99829463  0.00790518  0.00067254    -1.88200
Cd974      Cd  0.04358099  0.99613611  0.99567443     1.59900
O975        O  0.93958958  0.95443631  0.00089992    -0.77600
O976        O  0.06989715  0.03342795  0.97864904    -0.76300
C977        C  0.94657637  0.03590213  0.93614801     0.86200
C978        C  0.96674075  0.07134598  0.05285025     0.85900
O979        O  0.03417121  0.07120061  0.97407163    -0.75200
C980        C  0.05125993  0.97743767  0.06534301     0.86700
O981        O  0.96260213  0.05497044  0.95251732    -0.75300
C982        C  0.93420902  0.95376331  0.03032646     0.86800
C983        C  0.02961456  0.94351468  0.94783796     0.87200
O984        O  0.99999712  0.94772756  0.94893500    -0.77800
O985        O  0.19592630  0.25361550  0.97562425    -0.75300
C986        C  0.18673093  0.31215678  0.05836874     0.85800
O987        O  0.22347824  0.36793683  0.96325736    -0.76400
O988        O  0.28889286  0.32732275  0.05659719    -0.77900
O989        O  0.29392489  0.24167083  0.00318835    -0.77700
O990        O  0.24033167  0.24179250  0.95038885    -0.76300
Zn991      Zn  0.20405979  0.29751306  0.99086393     1.55700
O992        O  0.27131021  0.25185467  0.04946863    -0.77700
Cd993      Cd  0.27170607  0.27180864  0.97252893     1.59700
Cd994      Cd  0.26116277  0.34605758  0.98578741     1.59600
O995        O  0.30451271  0.29361665  0.94263665    -0.77700
O996        O  0.24793734  0.30317634  0.99728193    -1.88200
Cd997      Cd  0.25485128  0.29671332  0.04235688     1.59900
O998        O  0.29695104  0.34425303  0.95321653    -0.77600
O999        O  0.21464128  0.30764043  0.06802531    -0.76300
C1000       C  0.19872099  0.35544953  0.95180957     0.86200
C1001       C  0.21208685  0.23561694  0.95812511     0.85900
O1002       O  0.17920611  0.30821230  0.02980129    -0.75200
C1003       C  0.28845944  0.23498229  0.03177015     0.86700
O1004       O  0.19003537  0.32781667  0.95852995    -0.75300
C1005       C  0.31135503  0.32252505  0.93883531     0.86800
C1006       C  0.29470508  0.35532419  0.04842778     0.87200
O1007       O  0.28218856  0.36807463  0.02436059    -0.77800
O1008       O  0.74838787  0.48562974  0.69354154    -0.75300
C1009       C  0.80476099  0.56984787  0.68611857     0.85800
O1010       O  0.86302196  0.47711739  0.72286304    -0.76400
O1011       O  0.81781006  0.56839079  0.78801845    -0.77900
O1012       O  0.73409137  0.51225077  0.79241049    -0.77700
O1013       O  0.73599839  0.46057584  0.73785658    -0.76300
Zn1014     Zn  0.79174225  0.50204806  0.70275666     1.55700
O1015       O  0.74251806  0.55864152  0.76949262    -0.77700
Cd1016     Cd  0.76517826  0.48279069  0.76983706     1.59700
Cd1017     Cd  0.83934095  0.49786274  0.76056204     1.59600
O1018       O  0.78721853  0.45260748  0.80205517    -0.77700
O1019       O  0.79629715  0.50840801  0.74670901    -1.88200
Cd1020     Cd  0.78800951  0.55317761  0.75363161     1.59900
O1021       O  0.83789422  0.46416109  0.79548170    -0.77600
O1022       O  0.79885442  0.57935306  0.71379351    -0.76300
C1023       C  0.85114224  0.46517475  0.69805505     0.86200
C1024       C  0.73034788  0.46790764  0.70943438     0.85900
O1025       O  0.80208418  0.54122561  0.67848762    -0.75200
C1026       C  0.72626349  0.54045515  0.78674723     0.86700
O1027       O  0.82328505  0.47082539  0.68918480    -0.75300
C1028       C  0.81613790  0.44902542  0.80916747     0.86800
C1029       C  0.84587186  0.56075017  0.79455113     0.87200
O1030       O  0.85938960  0.53683501  0.78260981    -0.77800
O1031       O  0.96777136  0.18564689  0.79971026    -0.75300
C1032       C  0.03773721  0.22077012  0.72568051     0.85800
O1033       O  0.03433898  0.22932986  0.85860350    -0.76400
O1034       O  0.05218041  0.31208839  0.78283184    -0.77900
O1035       O  0.94451616  0.27705413  0.74463831    -0.77700
O1036       O  0.92941423  0.22083128  0.80214192    -0.76300
Zn1037     Zn  0.00619245  0.21100895  0.78810707     1.55700
O1038       O  0.98984200  0.30098533  0.73340237    -0.77700
Cd1039     Cd  0.95393047  0.26106056  0.78951216     1.59700
Cd1040     Cd  0.01262304  0.26755090  0.83693033     1.59600
O1041       O  0.94099261  0.29513104  0.82046440    -0.77700
O1042       O  0.99929329  0.25461343  0.79442431    -1.88200
Cd1043     Cd  0.02187913  0.27936362  0.76235548     1.59900
O1044       O  0.97525198  0.28961008  0.85985019    -0.77600
O1045       O  0.04414827  0.24926047  0.73169893    -0.76300
C1046       C  0.04567168  0.20477495  0.84572632     0.86200
C1047       C  0.93947840  0.19299456  0.80565841     0.85900
O1048       O  0.02118186  0.20378528  0.74385334    -0.75200
C1049       C  0.96129624  0.29471049  0.72731979     0.86700
O1050       O  0.03904726  0.19670636  0.81784765    -0.75300
C1051       C  0.95056305  0.30168990  0.84789013     0.86800
C1052       C  0.05859278  0.31768135  0.81152613     0.87200
O1053       O  0.04621815  0.30239165  0.83392563    -0.77800
C1054       C  0.83620655  0.35118690  0.92126829     0.89700
C1055       C  0.85214701  0.37444665  0.94371130    -0.50500
C1056       C  0.87349715  0.39343208  0.92914881     0.12600
C1057       C  0.87661536  0.38751845  0.89364403     0.23600
C1058       C  0.82173892  0.37119969  0.89523576    -0.51200
C1059       C  0.84282651  0.39029764  0.88066095     0.12700
C1060       C  0.86315112  0.33357169  0.90575695    -0.50800
C1061       C  0.88443263  0.35243265  0.89162482     0.13300
H1062       H  0.84790553  0.37498059  0.96879433     0.17800
H1063       H  0.89400654  0.40283554  0.88179600     0.03600
H1064       H  0.79713950  0.37017639  0.88874538     0.18100
H1065       H  0.86557674  0.30826276  0.90643282     0.17900
C1066       C  0.15558595  0.43043607  0.83381031     0.89700
C1067       C  0.13631360  0.40466411  0.81790904    -0.50500
C1068       C  0.11688960  0.38916913  0.83803684     0.12600
C1069       C  0.11860034  0.40096927  0.87220989     0.23600
C1070       C  0.13152813  0.45190458  0.84981821    -0.51200
C1071       C  0.11217521  0.43635649  0.87005806     0.12700
C1072       C  0.17281421  0.41427811  0.86063088    -0.50800
C1073       C  0.15356535  0.39911116  0.88082151     0.13300
H1074       H  0.13801664  0.39905265  0.79315439     0.17800
H1075       H  0.10296860  0.38834257  0.88876048     0.03600
H1076       H  0.13066689  0.47706340  0.84639695     0.18100
H1077       H  0.19809203  0.41527526  0.86378542     0.17900
C1078       C  0.92473179  0.67225311  0.84420190     0.89700
C1079       C  0.89956458  0.68900859  0.86345109    -0.50500
C1080       C  0.88284461  0.66946823  0.88236637     0.12600
C1081       C  0.89294492  0.63476148  0.88020778     0.23600
C1082       C  0.94520120  0.65484763  0.86816052    -0.51200
C1083       C  0.92846901  0.63506110  0.88701194     0.12700
C1084       C  0.90743545  0.64658945  0.82636188    -0.50800
C1085       C  0.89104433  0.62682311  0.84505018     0.13300
H1086       H  0.89525593  0.71401065  0.86215228     0.17800
H1087       H  0.87931724  0.61864789  0.89543111     0.03600
H1088       H  0.97053442  0.65710906  0.86936248     0.18100
H1089       H  0.90855074  0.64387191  0.80105828     0.17900
C1090       C  0.07428280  0.34108140  0.15304464     0.89700
C1091       C  0.05434495  0.35870469  0.12873754    -0.50500
C1092       C  0.07147166  0.37897781  0.11072440     0.12600
C1093       C  0.10675632  0.37942293  0.11860243     0.23600
C1094       C  0.10018749  0.32487505  0.13428710    -0.51200
C1095       C  0.11726882  0.34486430  0.11618706     0.12700
C1096       C  0.09077782  0.36665393  0.17179488    -0.50800
C1097       C  0.10750322  0.38684938  0.15390181     0.13300
H1098       H  0.02907743  0.35627400  0.12676645     0.17800
H1099       H  0.12067739  0.39590327  0.10405221     0.03600
H1100       H  0.10466326  0.29988613  0.13527008     0.18100
H1101       H  0.08877319  0.36907297  0.19707413     0.17900
C1102       C  0.84415394  0.58290847  0.16080987     0.89700
C1103       C  0.86807513  0.56134713  0.14469003    -0.50500
C1104       C  0.88785319  0.57693707  0.12486065     0.12600
C1105       C  0.88195823  0.61248613  0.12326046     0.23600
C1106       C  0.86362662  0.60814545  0.17729846    -0.51200
C1107       C  0.88349689  0.62370419  0.15768743     0.12700
C1108       C  0.82744304  0.59972277  0.13407138    -0.50800
C1109       C  0.84708067  0.61496826  0.11431074     0.13300
H1110       H  0.86854968  0.53612749  0.14773479     0.17800
H1111       H  0.89793199  0.62516775  0.10708519     0.03600
H1112       H  0.86171268  0.61338489  0.20212148     0.18100
H1113       H  0.80218409  0.59913668  0.13067267     0.17900
C1114       C  0.16486482  0.66299889  0.07521884     0.89700
C1115       C  0.18069777  0.64284963  0.10030632    -0.50500
C1116       C  0.16030220  0.62410243  0.11624288     0.12600
C1117       C  0.12579005  0.62739459  0.10554499     0.23600
C1118       C  0.14720117  0.63992217  0.05397653    -0.51200
C1119       C  0.12658984  0.62129329  0.06994454     0.12700
C1120       C  0.13928259  0.68110856  0.09238481    -0.50800
C1121       C  0.11869608  0.66263729  0.10799289     0.13300
H1122       H  0.20570565  0.64338764  0.10507144     0.17800
H1123       H  0.10899258  0.61234497  0.11853421     0.03600
H1124       H  0.14999323  0.63906884  0.02869883     0.18100
H1125       H  0.13717857  0.70644438  0.09168406     0.17900
O1126       O  0.03563265  0.57135048  0.02525007    -0.75300
C1127       C  0.96895483  0.57069206  0.94551354     0.85800
O1128       O  0.94943074  0.50663368  0.05814788    -0.76400
O1129       O  0.95168906  0.46938081  0.95025055    -0.77900
O1130       O  0.06489042  0.48179138  0.96040223    -0.77700
O1131       O  0.07205564  0.53425472  0.02026947    -0.76300
Zn1132     Zn  0.99479225  0.55185997  0.00995845     1.55700
O1133       O  0.02485440  0.48443392  0.92673124    -0.77700
Cd1134     Cd  0.04634397  0.49658024  0.00297937     1.59700
Cd1135     Cd  0.97478889  0.47965016  0.02603180     1.59600
O1136       O  0.05205683  0.45994735  0.03453042    -0.77700
O1137       O  0.00079625  0.50787891  0.99837535    -1.88200
Cd1138     Cd  0.98786206  0.50162375  0.95352335     1.59900
O1139       O  0.00357361  0.44851095  0.05071448    -0.77600
O1140       O  0.97168072  0.54324192  0.93421378    -0.76300
C1141       C  0.94788323  0.53618131  0.06213546     0.86200
C1142       C  0.06378049  0.56177117  0.02822885     0.85900
O1143       O  0.97722786  0.57724545  0.97345936    -0.75200
C1144       C  0.05328671  0.47787283  0.93315950     0.86700
O1145       O  0.96362754  0.55526923  0.04549972    -0.75300
C1146       C  0.03314371  0.44391178  0.05115153     0.86800
C1147       C  0.93691597  0.45262325  0.97000376     0.87200
O1148       O  0.94282802  0.45351630  0.99931701    -0.77800
O1149       O  0.53120790  0.82931125  0.30034283    -0.75300
C1150       C  0.46236988  0.79361942  0.22591171     0.85800
O1151       O  0.46500837  0.78526600  0.35934524    -0.76400
O1152       O  0.44755263  0.70234485  0.28401516    -0.77900
O1153       O  0.55512690  0.73795511  0.24533248    -0.77700
O1154       O  0.56995340  0.79451670  0.30216459    -0.76300
Zn1155     Zn  0.49295210  0.80366460  0.28886379     1.55700
O1156       O  0.51010259  0.71329709  0.23451530    -0.77700
Cd1157     Cd  0.54567357  0.75404324  0.29014606     1.59700
Cd1158     Cd  0.48719463  0.74725105  0.33780763     1.59600
O1159       O  0.55899554  0.72036397  0.32134446    -0.77700
O1160       O  0.50026240  0.76012813  0.29518434    -1.88200
Cd1161     Cd  0.47783252  0.73509029  0.26317712     1.59900
O1162       O  0.52487037  0.72590615  0.36085269    -0.77600
O1163       O  0.45599129  0.76508332  0.23187325    -0.76300
C1164       C  0.45337561  0.80966336  0.34644764     0.86200
C1165       C  0.55967480  0.82225169  0.30577618     0.85900
O1166       O  0.47839644  0.81071989  0.24443940    -0.75200
C1167       C  0.53851793  0.71996455  0.22820616     0.86700
O1168       O  0.45983900  0.81773470  0.31852311    -0.75300
C1169       C  0.54958530  0.71392206  0.34885401     0.86800
C1170       C  0.44150610  0.69662165  0.31279182     0.87200
O1171       O  0.45407509  0.71192821  0.33507400    -0.77800
O1172       O  0.52429733  0.20508361  0.75312942    -0.75300
C1173       C  0.44119227  0.19220417  0.69591245     0.85800
O1174       O  0.53446363  0.23257796  0.63866920    -0.76400
O1175       O  0.43877060  0.29357102  0.67993026    -0.77900
O1176       O  0.49201635  0.30246531  0.76507092    -0.77700
O1177       O  0.54628538  0.25087090  0.76588667    -0.76300
Zn1178     Zn  0.50820313  0.21232071  0.70947932     1.55700
O1179       O  0.44684144  0.27732755  0.75601702    -0.77700
Cd1180     Cd  0.52342693  0.28086902  0.73544476     1.59700
Cd1181     Cd  0.51149835  0.26959559  0.66128461     1.59600
O1182       O  0.55315314  0.31387566  0.71418398    -0.77700
O1183       O  0.49995581  0.25583122  0.70406996    -1.88200
Cd1184     Cd  0.45456194  0.26076940  0.71106506     1.59900
O1185       O  0.54389606  0.30569516  0.66334132    -0.77600
O1186       O  0.43050828  0.21960098  0.70075716    -0.76300
C1187       C  0.54679370  0.20820906  0.65097895     0.86200
C1188       C  0.54045712  0.22216728  0.77151527     0.85900
O1189       O  0.47012437  0.18581703  0.69933332    -0.75200
C1190       C  0.46388951  0.29562430  0.77236952     0.86700
O1191       O  0.54071231  0.19942629  0.67876061    -0.75300
C1192       C  0.55771365  0.32037137  0.68530530     0.86800
C1193       C  0.44730212  0.30048988  0.65223227     0.87200
O1194       O  0.47236699  0.28980553  0.63972298    -0.77800
O1195       O  0.69639635  0.97635155  0.82134674    -0.75300
C1196       C  0.77062659  0.04627132  0.78927050     0.85800
O1197       O  0.63781637  0.03878419  0.77504511    -0.76400
O1198       O  0.71532913  0.06182483  0.69666067    -0.77900
O1199       O  0.75805299  0.95534452  0.73151729    -0.77700
O1200       O  0.70034937  0.93709475  0.78736952    -0.76300
Zn1201     Zn  0.70836554  0.01439346  0.79602232     1.55700
O1202       O  0.76674559  0.00093892  0.70712495    -0.77700
Cd1203     Cd  0.71237233  0.96177511  0.74684491     1.59700
Cd1204     Cd  0.66191416  0.01771859  0.73779507     1.59600
O1205       O  0.68295285  0.94619759  0.71227267    -0.77700
O1206       O  0.70450689  0.00677490  0.75232837    -1.88200
Cd1207     Cd  0.73624400  0.03130327  0.72903723     1.59900
O1208       O  0.64209627  0.97902335  0.71506271    -0.77600
O1209       O  0.76551131  0.05329590  0.76071040    -0.76300
C1210       C  0.64971944  0.05192230  0.79923082     0.86200
C1211       C  0.69366739  0.94752279  0.81454707     0.85900
O1212       O  0.75196216  0.02942266  0.80534179    -0.75200
C1213       C  0.77438116  0.97287351  0.71362246     0.86700
O1214       O  0.67772812  0.04703543  0.80807236    -0.75300
C1215       C  0.65545987  0.95448484  0.70426827     0.86800
C1216       C  0.68652580  0.06616334  0.68962220     0.87200
O1217       O  0.66438773  0.05155037  0.70322718    -0.77800
C1218       C  0.34401142  0.08333224  0.66113391     0.89700
C1219       C  0.36856686  0.06221264  0.64542603    -0.50500
C1220       C  0.38909209  0.07833946  0.62683132     0.12600
C1221       C  0.38312858  0.11389303  0.62579379     0.23600
C1222       C  0.36279741  0.10811011  0.67897079    -0.51200
C1223       C  0.38339102  0.12413365  0.66055952     0.12700
C1224       C  0.32825664  0.10076731  0.63424928    -0.50800
C1225       C  0.34854795  0.11652653  0.61558061     0.13300
H1226       H  0.36907707  0.03694022  0.64797179     0.17800
H1227       H  0.39970925  0.12697542  0.61057849     0.03600
H1228       H  0.36011318  0.11253575  0.70388270     0.18100
H1229       H  0.30314875  0.10012849  0.62987750     0.17900
C1230       C  0.57719543  0.84276511  0.65567680     0.89700
C1231       C  0.55680667  0.85975688  0.63135404    -0.50500
C1232       C  0.57365618  0.87902451  0.61207600     0.12600
C1233       C  0.60915710  0.87930008  0.61889339     0.23600
C1234       C  0.60224339  0.82544894  0.63679295    -0.51200
C1235       C  0.61901224  0.84450147  0.61744076     0.12700
C1236       C  0.59462341  0.86868621  0.67297436    -0.50800
C1237       C  0.61109910  0.88797642  0.65387921     0.13300
H1238       H  0.53146243  0.85760023  0.63019393     0.17800
H1239       H  0.62286090  0.89500530  0.60331502     0.03600
H1240       H  0.60632830  0.80043385  0.63852154     0.18100
H1241       H  0.59348338  0.87196419  0.69821171     0.17900
C1242       C  0.66601151  0.16365152  0.57742282     0.89700
C1243       C  0.68090924  0.14408688  0.60352260    -0.50500
C1244       C  0.66003822  0.12521137  0.61864675     0.12600
C1245       C  0.62608357  0.12775205  0.60614631     0.23600
C1246       C  0.64984908  0.14005994  0.55558734    -0.51200
C1247       C  0.62877659  0.12129004  0.57070957     0.12700
C1248       C  0.63927882  0.18154856  0.59305585    -0.50800
C1249       C  0.61825453  0.16286764  0.60782287     0.13300
H1250       H  0.70562392  0.14513660  0.60956467     0.17800
H1251       H  0.60890230  0.11255236  0.61844456     0.03600
H1252       H  0.65385019  0.13904796  0.53047747     0.18100
H1253       H  0.63678209  0.20683007  0.59195404     0.17900
C1254       C  0.33663295  0.85302597  0.42323332     0.89700
C1255       C  0.35342781  0.87613795  0.44522588    -0.50500
C1256       C  0.37389234  0.89554468  0.42993713     0.12600
C1257       C  0.37530506  0.89018399  0.39424453     0.23600
C1258       C  0.32074371  0.87326900  0.39820687    -0.51200
C1259       C  0.34095783  0.89274123  0.38291414     0.12700
C1260       C  0.36298955  0.83593123  0.40615120    -0.50800
C1261       C  0.38330528  0.85524974  0.39123501     0.13300
H1262       H  0.35045716  0.87621970  0.47049598     0.17800
H1263       H  0.39195625  0.90583412  0.38178214     0.03600
H1264       H  0.29592492  0.87190970  0.39268341     0.18100
H1265       H  0.36575524  0.81065394  0.40635397     0.17900
C1266       C  0.65664398  0.93145240  0.33766658     0.89700
C1267       C  0.63746578  0.90627622  0.32089759    -0.50500
C1268       C  0.61735696  0.89074543  0.34022099     0.12600
C1269       C  0.61841869  0.90188849  0.37466991     0.23600
C1270       C  0.63258577  0.95301355  0.35340651    -0.51200
C1271       C  0.61261904  0.93741353  0.37295338     0.12700
C1272       C  0.67307115  0.91467420  0.36459146    -0.50800
C1273       C  0.65315908  0.89945619  0.38409863     0.13300
H1274       H  0.63960588  0.90116400  0.29606311     0.17800
H1275       H  0.60220463  0.88923967  0.39063066     0.03600
H1276       H  0.63223498  0.97825055  0.35045238     0.18100
H1277       H  0.69827549  0.91536279  0.36835962     0.17900
C1278       C  0.42611626  0.17060418  0.34409365     0.89700
C1279       C  0.40052689  0.18677907  0.36327994    -0.50500
C1280       C  0.38416678  0.16691342  0.38215250     0.12600
C1281       C  0.39511029  0.13243227  0.38007689     0.23600
C1282       C  0.44695897  0.15368675  0.36808626    -0.51200
C1283       C  0.43065684  0.13350933  0.38692026     0.12700
C1284       C  0.40944555  0.14453545  0.32625268    -0.50800
C1285       C  0.39343414  0.12444187  0.34491398     0.13300
H1286       H  0.39557392  0.21165585  0.36184458     0.17800
H1287       H  0.38180132  0.11603431  0.39527492     0.03600
H1288       H  0.47223184  0.15653692  0.36931807     0.18100
H1289       H  0.41052953  0.14191980  0.30093582     0.17900
O1290       O  0.52566900  0.93684473  0.52488876    -0.75300
C1291       C  0.43821275  0.95355891  0.47158116     0.85800
O1292       O  0.55372458  0.00778460  0.44117144    -0.76400
O1293       O  0.45198590  0.05463777  0.46376590    -0.77900
O1294       O  0.47820070  0.02974350  0.57239142    -0.77700
O1295       O  0.53102344  0.97041921  0.56453485    -0.76300
Zn1296     Zn  0.50762925  0.96259677  0.48882426     1.55700
O1297       O  0.43893748  0.03420759  0.53803648    -0.77700
Cd1298     Cd  0.51515807  0.01231308  0.54559644     1.59700
Cd1299     Cd  0.52880371  0.03486963  0.47328480     1.59600
O1300       O  0.55142646  0.04430895  0.54926172    -0.77700
O1301       O  0.50246549  0.00661143  0.50062203    -1.88200
Cd1302     Cd  0.45724090  0.01859787  0.49583056     1.59900
O1303       O  0.56066097  0.06066034  0.50040312    -0.77600
O1304       O  0.43064454  0.98132795  0.47928572    -0.76300
C1305       C  0.55415946  0.97832590  0.43645661     0.86200
C1306       C  0.53382061  0.94309959  0.55294325     0.85900
O1307       O  0.46622039  0.94346574  0.47428593    -0.75200
C1308       C  0.45012781  0.03735761  0.56552378     0.86700
O1309       O  0.53793759  0.95931684  0.45270347    -0.75300
C1310       C  0.56631056  0.06126556  0.52977674     0.86800
C1311       C  0.47098522  0.07054420  0.44717442     0.87200
O1312       O  0.50057275  0.06611776  0.44803430    -0.77800
C1313       C  0.44597611  0.11269034  0.40896022    -0.10000
C1314       C  0.45820107  0.09406830  0.42651263    -0.11600
C1315       C  0.59087632  0.95336899  0.39333033    -0.10000
C1316       C  0.57388315  0.96572744  0.41224491    -0.11600
C1317       C  0.41447544  0.93323684  0.45854926    -0.10000
C1318       C  0.39523718  0.91643947  0.44616456    -0.11600
C1319       C  0.60847904  0.09959937  0.55434593    -0.10000
C1320       C  0.58999123  0.08210580  0.54188302    -0.11600
C1321       C  0.55898601  0.89979000  0.58962115    -0.10000
C1322       C  0.54708656  0.91873716  0.57223380    -0.11600
C1323       C  0.41226720  0.06297961  0.60743054    -0.10000
C1324       C  0.43027950  0.05068411  0.58935419    -0.11600
C1325       C  0.67821228  0.08781412  0.66503453    -0.10000
C1326       C  0.66960742  0.10488607  0.64409698    -0.11600
C1327       C  0.63917654  0.93465891  0.68259924    -0.10000
C1328       C  0.62699971  0.91475338  0.66673652    -0.11600
C1329       C  0.42036297  0.16810524  0.68461280    -0.10000
C1330       C  0.40363047  0.14819005  0.67333890    -0.11600
C1331       C  0.56932419  0.19026108  0.63376981    -0.10000
C1332       C  0.59059600  0.17596900  0.62196308    -0.11600
C1333       C  0.58040795  0.84612332  0.31760302    -0.10000
C1334       C  0.59706986  0.86622827  0.32857317    -0.11600
C1335       C  0.41047566  0.84280887  0.37573055    -0.10000
C1336       C  0.43130205  0.82844173  0.36329874    -0.11600
C1337       C  0.08681048  0.58247450  0.04182699    -0.10000
C1338       C  0.10543177  0.59980574  0.05435971    -0.11600
C1339       C  0.92741042  0.54877013  0.08590935    -0.10000
C1340       C  0.90989107  0.56103934  0.10452167    -0.11600
C1341       C  0.05722840  0.40059503  0.08872016    -0.10000
C1342       C  0.04583575  0.41990484  0.07134161    -0.11600
C1343       C  0.94332714  0.61389203  0.90898297    -0.10000
C1344       C  0.95548515  0.59486399  0.92611219    -0.11600
C1345       C  0.09015854  0.45224919  0.89034495    -0.10000
C1346       C  0.07292350  0.46469788  0.90906141    -0.11600
C1347       C  0.89402209  0.41461048  0.94600652    -0.10000
C1348       C  0.91290839  0.43183455  0.95831837    -0.11600
C1349       C  0.08000119  0.34259722  0.81940952    -0.10000
C1350       C  0.09690199  0.36373144  0.82782447    -0.11600
C1351       C  0.91204595  0.33923371  0.87754737    -0.10000
C1352       C  0.93193533  0.32322546  0.86557767    -0.11600
C1353       C  0.82497371  0.42766592  0.83395310    -0.10000
C1354       C  0.83361738  0.41074637  0.85506771    -0.11600
C1355       C  0.86261418  0.58059198  0.81584464    -0.10000
C1356       C  0.87507209  0.60033323  0.83169201    -0.11600
C1357       C  0.14266856  0.33375618  0.09654840    -0.10000
C1358       C  0.16312079  0.32330363  0.07988755    -0.11600
C1359       C  0.16603290  0.38432970  0.90835184    -0.10000
C1360       C  0.18027236  0.37232006  0.92950031    -0.11600
C1361       C  0.90238855  0.14922784  0.82947554    -0.10000
C1362       C  0.91879420  0.16933634  0.81808049    -0.11600
C1363       C  0.90977025  0.06101471  0.89308665    -0.10000
C1364       C  0.92684599  0.04848721  0.91186197    -0.11600
C1365       C  0.79842471  0.05770262  0.80397079    -0.10000
C1366       C  0.82053748  0.06796314  0.81805864    -0.11600
C1367       C  0.05481348  0.90140457  0.90977148    -0.10000
C1368       C  0.04240250  0.91983671  0.92738037    -0.11600
C1369       C  0.91033202  0.93317526  0.04253062    -0.10000
C1370       C  0.89174626  0.91570033  0.05489633    -0.11600
C1371       C  0.95310217  0.09563578  0.07196594    -0.10000
C1372       C  0.94081979  0.11448124  0.08919526    -0.11600
C1373       C  0.07125210  0.96410917  0.08908141    -0.10000
C1374       C  0.08915804  0.95171236  0.10721024    -0.11600
C1375       C  0.06770658  0.18586429  0.86246620    -0.10000
C1376       C  0.08869335  0.17152334  0.87465126    -0.11600
C1377       C  0.08572173  0.08158962  0.95775438    -0.10000
C1378       C  0.10479140  0.09843166  0.94515123    -0.11600
C1379       C  0.19777272  0.20739222  0.94684478    -0.10000
C1380       C  0.18356307  0.18506520  0.93700959    -0.11600
C1381       C  0.29820214  0.05686442  0.69396237    -0.10000
C1382       C  0.32062489  0.06719663  0.68031318    -0.11600
C1383       C  0.16962312  0.10244565  0.85638977    -0.10000
C1384       C  0.17881206  0.08609328  0.83511172    -0.11600
C1385       C  0.12435248  0.91812864  0.83352512    -0.10000
C1386       C  0.13703667  0.93735220  0.81727933    -0.11600
C1387       C  0.80005706  0.30699365  0.94614196    -0.10000
C1388       C  0.81440145  0.32906859  0.93595129    -0.11600
C1389       C  0.85533845  0.18118081  0.09832655    -0.10000
C1390       C  0.83543451  0.19253620  0.08166782    -0.11600
C1391       C  0.83539059  0.12932590  0.91318977    -0.10000
C1392       C  0.82107350  0.14141188  0.93426201    -0.11600
C1393       C  0.09724118  0.86545577  0.17214538    -0.10000
C1394       C  0.08039787  0.84552106  0.18327143    -0.11600
C1395       C  0.90366103  0.64872468  0.16873708    -0.10000
C1396       C  0.92048604  0.66960507  0.17801139    -0.11600
C1397       C  0.93073935  0.82359779  0.13309618    -0.10000
C1398       C  0.90957346  0.83804464  0.12130342    -0.11600
C1399       C  0.09206740  0.67627307  0.12353153    -0.10000
C1400       C  0.07224961  0.69208389  0.13591764    -0.11600
C1401       C  0.68419620  0.14236939  0.07086151    -0.10000
C1402       C  0.66866535  0.12971426  0.09076936    -0.11600
C1403       C  0.57289259  0.05133024  0.08646969    -0.10000
C1404       C  0.59037793  0.06306455  0.10547628    -0.11600
C1405       C  0.61987226  0.09531879  0.83095597    -0.10000
C1406       C  0.63181138  0.07406537  0.81685117    -0.11600
C1407       C  0.64352036  0.17326649  0.90221790    -0.10000
C1408       C  0.66453928  0.18177660  0.91920496    -0.11600
C1409       C  0.55257207  0.11457386  0.90704298    -0.10000
C1410       C  0.54023349  0.09600678  0.92447356    -0.11600
C1411       C  0.56255063  0.19366547  0.82138511    -0.10000
C1412       C  0.55243817  0.20830637  0.79955036    -0.11600
C1413       C  0.39275496  0.09812672  0.05527857    -0.10000
C1414       C  0.41096532  0.08030431  0.04302112    -0.11600
C1415       C  0.30277590  0.20766514  0.04471124    -0.10000
C1416       C  0.31673852  0.18642170  0.05678893    -0.11600
C1417       C  0.44623848  0.90016592  0.08875189    -0.10000
C1418       C  0.45793342  0.91922174  0.07134058    -0.11600
C1419       C  0.45090883  0.80726511  0.19744687    -0.10000
C1420       C  0.44046412  0.82140567  0.17536958    -0.11600
C1421       C  0.67013921  0.91002464  0.85812342    -0.10000
C1422       C  0.68141551  0.92654497  0.83803543    -0.11600
C1423       C  0.60581989  0.91830550  0.94508571    -0.10000
C1424       C  0.58728525  0.93608979  0.95699308    -0.11600
C1425       C  0.42769202  0.96474648  0.90957278    -0.10000
C1426       C  0.41048334  0.95229945  0.89081241    -0.11600
C1427       C  0.32319374  0.94687184  0.81297887    -0.10000
C1428       C  0.30152404  0.95829383  0.79892036    -0.11600
C1429       C  0.20012827  0.70649204  0.04820196    -0.10000
C1430       C  0.18601086  0.68460455  0.05900967    -0.11600
C1431       C  0.33534161  0.83082711  0.07956140    -0.10000
C1432       C  0.35655332  0.83934666  0.09640892    -0.11600
C1433       C  0.14226540  0.83621232  0.90138389    -0.10000
C1434       C  0.16286640  0.82500984  0.91732948    -0.11600
C1435       C  0.31610921  0.87424974  0.92944570    -0.10000
C1436       C  0.33205199  0.88646686  0.90960700    -0.11600
C1437       C  0.16414327  0.88289973  0.08740800    -0.10000
C1438       C  0.17853041  0.87101074  0.06623657    -0.11600
C1439       C  0.18028646  0.94648555  0.18071998    -0.10000
C1440       C  0.20283041  0.95681514  0.19419549    -0.11600
C1441       C  0.32842922  0.10736800  0.14128001    -0.10000
C1442       C  0.31799941  0.09026410  0.16133563    -0.11600
C1443       C  0.32213680  0.92912297  0.33590560    -0.10000
C1444       C  0.33074470  0.91271572  0.35739240    -0.11600
C1445       C  0.38094602  0.91850212  0.16664497    -0.10000
C1446       C  0.36919725  0.93975761  0.18097513    -0.11600
C1447       C  0.36482670  0.07857571  0.31534478    -0.10000
C1448       C  0.37750182  0.09799232  0.33142448    -0.11600
C1449       C  0.54878759  0.80941041  0.69973423    -0.10000
C1450       C  0.56018189  0.82296395  0.67782206    -0.11600
C1451       C  0.41897082  0.84156197  0.82187764    -0.10000
C1452       C  0.40208335  0.86271873  0.83034631    -0.11600
C1453       C  0.56809425  0.82517357  0.86530085    -0.10000
C1454       C  0.58765020  0.84137124  0.87760192    -0.11600
C1455       C  0.40749321  0.33687341  0.62251533    -0.10000
C1456       C  0.42732505  0.32108078  0.63487096    -0.11600
C1457       C  0.39463733  0.41444457  0.55510870    -0.10000
C1458       C  0.41363005  0.43158266  0.54283961    -0.11600
C1459       C  0.54554219  0.41888748  0.42718301    -0.10000
C1460       C  0.55819802  0.40015528  0.41006798    -0.11600
C1461       C  0.42021608  0.67161935  0.32093487    -0.10000
C1462       C  0.40324650  0.65055875  0.32949731    -0.11600
C1463       C  0.40814166  0.56136486  0.39171641    -0.10000
C1464       C  0.42527411  0.54876346  0.41045699    -0.11600
C1465       C  0.44409092  0.61373587  0.58901173    -0.10000
C1466       C  0.45591130  0.59455104  0.57179275    -0.11600
C1467       C  0.44141123  0.69214563  0.67599320    -0.10000
C1468       C  0.45198200  0.70588759  0.69824825    -0.11600
C1469       C  0.59616442  0.36592407  0.66750699    -0.10000
C1470       C  0.57896477  0.34527960  0.67666367    -0.11600
C1471       C  0.57392872  0.46662441  0.58607666    -0.10000
C1472       C  0.59154793  0.45432206  0.60457383    -0.11600
C1473       C  0.70259105  0.45591708  0.69471816    -0.10000
C1474       C  0.68036259  0.44557070  0.68067056    -0.11600
C1475       C  0.58819145  0.67618230  0.37809787    -0.10000
C1476       C  0.56831706  0.69246049  0.36649264    -0.11600
C1477       C  0.60581958  0.59850691  0.44372051    -0.10000
C1478       C  0.58675936  0.58128542  0.45578377    -0.11600
C1479       C  0.17793960  0.44636553  0.81325849    -0.10000
C1480       C  0.20001073  0.45780468  0.79991422    -0.11600
C1481       C  0.31843730  0.42644723  0.66202457    -0.10000
C1482       C  0.32877387  0.40950990  0.64174767    -0.11600
C1483       C  0.37610744  0.59912011  0.66532324    -0.10000
C1484       C  0.36393357  0.57815873  0.67972813    -0.11600
C1485       C  0.31583342  0.37275048  0.06790206    -0.10000
C1486       C  0.33165553  0.38489356  0.08790236    -0.11600
C1487       C  0.40897067  0.45229601  0.10524742    -0.10000
C1488       C  0.42655098  0.46473097  0.08684362    -0.11600
C1489       C  0.60005010  0.65035570  0.82722861    -0.10000
C1490       C  0.58372640  0.67093249  0.81655099    -0.11600
C1491       C  0.59067489  0.56453314  0.89382556    -0.10000
C1492       C  0.57349133  0.55269707  0.91297483    -0.11600
C1493       C  0.69841901  0.55243122  0.80104476    -0.10000
C1494       C  0.67699070  0.56411318  0.81514059    -0.11600
C1495       C  0.41193465  0.67225580  0.87557285    -0.10000
C1496       C  0.43337211  0.68608341  0.86358054    -0.11600
C1497       C  0.32861110  0.60592377  0.85576661    -0.10000
C1498       C  0.31939093  0.58935706  0.83471135    -0.11600
C1499       C  0.41211059  0.58034550  0.95545125    -0.10000
C1500       C  0.39322586  0.59755557  0.94327884    -0.11600
C1501       C  0.31764604  0.68659601  0.93875298    -0.10000
C1502       C  0.30390724  0.70856849  0.94980413    -0.11600
C1503       C  0.33658614  0.33156817  0.91810499    -0.10000
C1504       C  0.35780923  0.34103483  0.90176461    -0.11600
C1505       C  0.37984112  0.42063288  0.83136354    -0.10000
C1506       C  0.36740250  0.44043723  0.81553250    -0.11600
C1507       C  0.44818740  0.40225514  0.90787002    -0.10000
C1508       C  0.46082499  0.42074230  0.92522604    -0.11600
C1509       C  0.44011366  0.32409463  0.82149207    -0.10000
C1510       C  0.45096690  0.30966758  0.79987715    -0.11600
C1511       C  0.55271306  0.61744124  0.08956657    -0.10000
C1512       C  0.54036480  0.59888403  0.07212408    -0.11600
C1513       C  0.55216478  0.70624072  0.20082991    -0.10000
C1514       C  0.56305403  0.69222674  0.17892488    -0.11600
C1515       C  0.60686738  0.41870956  0.05503350    -0.10000
C1516       C  0.58839277  0.43672452  0.04340156    -0.11600
C1517       C  0.69703143  0.30855457  0.04392637    -0.10000
C1518       C  0.68334856  0.33043224  0.05510630    -0.11600
C1519       C  0.05392458  0.61360203  0.40952227    -0.10000
C1520       C  0.04120343  0.59522652  0.42691825    -0.11600
C1521       C  0.05962167  0.69065413  0.32188174    -0.10000
C1522       C  0.04845376  0.70501815  0.30037419    -0.11600
C1523       C  0.88019267  0.42149914  0.66603784    -0.10000
C1524       C  0.86872981  0.44313076  0.67997395    -0.11600
C1525       C  0.94664110  0.39939915  0.59044360    -0.10000
C1526       C  0.95872720  0.41788792  0.57275028    -0.11600
C1527       C  0.93673765  0.32294686  0.67838806    -0.10000
C1528       C  0.94766749  0.30861941  0.70005179    -0.11600
C1529       C  0.92545186  0.46291867  0.41059677    -0.10000
C1530       C  0.90863123  0.45072976  0.39136078    -0.11600
C1531       C  0.81625044  0.59155373  0.66295313    -0.10000
C1532       C  0.82730874  0.60795377  0.64266918    -0.11600
C1533       C  0.91032498  0.57823142  0.54390117    -0.10000
C1534       C  0.89220437  0.59606535  0.55637278    -0.11600
C1535       C  0.10557451  0.41616303  0.44454443    -0.10000
C1536       C  0.08674904  0.43373437  0.45638854    -0.11600
C1537       C  0.08849495  0.56283240  0.60453869    -0.10000
C1538       C  0.07098699  0.55066430  0.58584807    -0.11600
C1539       C  0.17599257  0.56585901  0.68253458    -0.10000
C1540       C  0.19821202  0.55551555  0.69655741    -0.11600
C1541       C  0.94164917  0.69264020  0.82243982    -0.10000
C1542       C  0.95295977  0.70655643  0.80067265    -0.11600
C1543       C  0.05945993  0.82540928  0.82079900    -0.10000
C1544       C  0.04952418  0.81142242  0.79843668    -0.11600
C1545       C  0.08070599  0.67160502  0.67769907    -0.10000
C1546       C  0.09719110  0.65041671  0.66851105    -0.11600
C1547       C  0.92953317  0.69099497  0.63513350    -0.10000
C1548       C  0.90986005  0.67525819  0.62240480    -0.11600
C1549       C  0.70180525  0.20693552  0.55089311    -0.10000
C1550       C  0.68757242  0.18526787  0.56190500    -0.11600
C1551       C  0.66539287  0.32343859  0.41688668    -0.10000
C1552       C  0.64512338  0.33485164  0.40070561    -0.11600
C1553       C  0.83531851  0.33230974  0.57934113    -0.10000
C1554       C  0.85587276  0.34112146  0.59674584    -0.11600
C1555       C  0.67943449  0.37156458  0.56461241    -0.10000
C1556       C  0.66516044  0.38390984  0.58559817    -0.11600
C1557       C  0.81587617  0.37247205  0.42733540    -0.10000
C1558       C  0.83114621  0.38479864  0.40706419    -0.11600
C1559       C  0.17176354  0.90752555  0.64151446    -0.10000
C1560       C  0.18229025  0.92446275  0.66163408    -0.11600
C1561       C  0.06744375  0.82599846  0.63157535    -0.10000
C1562       C  0.08856563  0.84029400  0.61952072    -0.11600
C1563       C  0.10899780  0.91852251  0.55477173    -0.10000
C1564       C  0.09062237  0.93635851  0.54285961    -0.11600
C1565       C  0.13090438  0.07397705  0.68105096    -0.10000
C1566       C  0.11895734  0.09515221  0.66677739    -0.11600
C1567       C  0.04151930  0.09623001  0.57179436    -0.10000
C1568       C  0.05369853  0.11508823  0.58903055    -0.11600
C1569       C  0.06073536  0.19304183  0.67570154    -0.10000
C1570       C  0.04982799  0.20709349  0.69756503    -0.11600
C1571       C  0.08983477  0.06191632  0.39092269    -0.10000
C1572       C  0.07227997  0.04996929  0.40971400    -0.11600
C1573       C  0.17704519  0.06573684  0.31256612    -0.10000
C1574       C  0.19877671  0.05465688  0.29834220    -0.11600
C1575       C  0.90148383  0.86456887  0.67038277    -0.10000
C1576       C  0.91816660  0.84433794  0.68114858    -0.11600
C1577       C  0.92748064  0.96313192  0.58717899    -0.10000
C1578       C  0.90974439  0.95125359  0.60583989    -0.11600
C1579       C  0.82338468  0.94910860  0.68484972    -0.10000
C1580       C  0.80205337  0.96040094  0.69941033    -0.11600
C1581       C  0.91262465  0.07781234  0.45729845    -0.10000
C1582       C  0.89424683  0.09545323  0.44500576    -0.11600
C1583       C  0.81933825  0.18485997  0.44076067    -0.10000
C1584       C  0.80536692  0.20667774  0.45177063    -0.11600
C1585       C  0.94804228  0.89969858  0.40882227    -0.10000
C1586       C  0.96049764  0.91816898  0.42625663    -0.11600
C1587       C  0.94797270  0.80872526  0.29900122    -0.10000
C1588       C  0.93783188  0.82322454  0.32094022    -0.11600
C1589       C  0.68613642  0.68392080  0.43624869    -0.10000
C1590       C  0.70051748  0.70596964  0.44651800    -0.11600
C1591       C  0.80325633  0.70673300  0.54505194    -0.10000
C1592       C  0.81689034  0.68507258  0.55668909    -0.11600
C1593       C  0.66333074  0.82123506  0.58046097    -0.10000
C1594       C  0.64342500  0.83228724  0.59732649    -0.11600
C1595       C  0.85655482  0.84137254  0.40219534    -0.10000
C1596       C  0.83542312  0.83257485  0.41894052    -0.11600
C1597       C  0.81491856  0.87251317  0.57041672    -0.10000
C1598       C  0.83059846  0.88510001  0.59027073    -0.11600
C1599       C  0.67898786  0.87204019  0.43284159    -0.10000
C1600       C  0.66484918  0.88432725  0.41178330    -0.11600
C1601       C  0.67942619  0.94720403  0.31770011    -0.10000
C1602       C  0.70167982  0.95760446  0.30399021    -0.11600
C1603       C  0.69831052  0.05324322  0.19892483    -0.10000
C1604       C  0.67684942  0.06461025  0.18452925    -0.11600
C1605       C  0.81992096  0.08942206  0.33665255    -0.10000
C1606       C  0.83141185  0.10574512  0.35680859    -0.11600
C1607       C  0.82300638  0.92580439  0.16648190    -0.10000
C1608       C  0.83141040  0.90904141  0.14521546    -0.11600
C1609       C  0.86859468  0.94253448  0.31967391    -0.10000
C1610       C  0.88070288  0.92133331  0.33367107    -0.11600
C1611       C  0.86096181  0.07746209  0.18145492    -0.10000
C1612       C  0.87300267  0.09734017  0.16552936    -0.11600
C1613       C  0.05715461  0.32014417  0.17413552    -0.10000
C1614       C  0.04661916  0.30589435  0.19608861    -0.11600
C1615       C  0.95002845  0.20291715  0.20074356    -0.10000
C1616       C  0.93861472  0.18954683  0.17874825    -0.11600
C1617       C  0.08238097  0.17165676  0.32105864    -0.10000
C1618       C  0.09923400  0.15061225  0.32987957    -0.11600
C1619       C  0.91749829  0.34286594  0.31615178    -0.10000
C1620       C  0.90090820  0.36352439  0.32632618    -0.11600
C1621       C  0.93417689  0.18872533  0.36637765    -0.10000
C1622       C  0.91450817  0.17274821  0.37876363    -0.11600
C1623       C  0.06821661  0.32811403  0.36141171    -0.10000
C1624       C  0.08909481  0.34220264  0.37407310    -0.11600
C1625       C  0.79890143  0.55695997  0.19485405    -0.10000
C1626       C  0.82131923  0.56721839  0.18108106    -0.11600
C1627       C  0.80088206  0.46044641  0.29883312    -0.10000
C1628       C  0.82248304  0.44862204  0.31259523    -0.11600
C1629       C  0.68289985  0.42402008  0.16131272    -0.10000
C1630       C  0.67214632  0.40763463  0.14088591    -0.11600
C1631       C  0.67491763  0.58767766  0.33203129    -0.10000
C1632       C  0.66625640  0.60453752  0.35319392    -0.11600
C1633       C  0.61995623  0.59406316  0.16443610    -0.10000
C1634       C  0.63193978  0.57245382  0.17795458    -0.11600
C1635       C  0.63670219  0.43630544  0.31557914    -0.10000
C1636       C  0.62474613  0.41662135  0.33186567    -0.11600
C1637       C  0.29910259  0.30838494  0.54731803    -0.10000
C1638       C  0.31330883  0.33020635  0.55813395    -0.11600
C1639       C  0.19545719  0.30506922  0.45012399    -0.10000
C1640       C  0.18170911  0.32724366  0.43944770    -0.11600
C1641       C  0.35864675  0.17811271  0.40162261    -0.10000
C1642       C  0.33794333  0.18911497  0.41763443    -0.11600
C1643       C  0.14471290  0.17395692  0.59705836    -0.10000
C1644       C  0.16590627  0.18230814  0.58011473    -0.11600
C1645       C  0.33718450  0.13221908  0.58797248    -0.10000
C1646       C  0.32275054  0.14424300  0.56688462    -0.11600
C1647       C  0.18571215  0.13867140  0.42904892    -0.10000
C1648       C  0.16978365  0.12646446  0.40915117    -0.11600
C1649       C  0.44236736  0.19147775  0.32227139    -0.10000
C1650       C  0.45247754  0.20598096  0.30029025    -0.11600
C1651       C  0.56052271  0.32293326  0.32229937    -0.10000
C1652       C  0.54931874  0.30922952  0.30038801    -0.11600
C1653       C  0.59849678  0.14957383  0.17135195    -0.10000
C1654       C  0.58213799  0.17021150  0.18197112    -0.11600
C1655       C  0.40260527  0.36471651  0.16853298    -0.10000
C1656       C  0.41979285  0.34421745  0.17801779    -0.11600
C1657       C  0.57120192  0.32383441  0.13434386    -0.10000
C1658       C  0.59067594  0.33948997  0.12126154    -0.11600
C1659       C  0.41059239  0.17622668  0.12168468    -0.10000
C1660       C  0.43164291  0.19040660  0.13404410    -0.11600
C1661       C  0.29918608  0.55786931  0.30003360    -0.10000
C1662       C  0.32120108  0.56913821  0.31365311    -0.11600
C1663       C  0.29989157  0.45730640  0.19766789    -0.10000
C1664       C  0.32180606  0.44697906  0.18324316    -0.11600
C1665       C  0.17091930  0.60318356  0.14080219    -0.10000
C1666       C  0.18104051  0.58598327  0.16095791    -0.11600
C1667       C  0.18073605  0.42623926  0.33706581    -0.10000
C1668       C  0.17159212  0.40959317  0.35806225    -0.11600
C1669       C  0.13293978  0.57470989  0.31575991    -0.10000
C1670       C  0.12066798  0.59460101  0.33155709    -0.11600
C1671       C  0.12240862  0.41365623  0.16783109    -0.10000
C1672       C  0.13429641  0.43459992  0.18251766    -0.11600
C1673       C  0.79802002  0.80850678  0.05089210    -0.10000
C1674       C  0.81222899  0.83025685  0.06176569    -0.11600
C1675       C  0.69587104  0.80753659  0.95145628    -0.10000
C1676       C  0.68193421  0.82953320  0.94075028    -0.11600
C1677       C  0.66499435  0.68347130  0.07999157    -0.10000
C1678       C  0.64410874  0.67499367  0.09714353    -0.11600
C1679       C  0.83764687  0.69211856  0.91876621    -0.10000
C1680       C  0.85795591  0.68113604  0.90229427    -0.11600
C1681       C  0.68497386  0.64232240  0.92825832    -0.10000
C1682       C  0.66937442  0.62984512  0.90834318    -0.11600
C1683       C  0.82053786  0.64291433  0.06616175    -0.10000
C1684       C  0.83493659  0.63044153  0.08696627    -0.11600
C1685       C  0.31570046  0.83040491  0.43849897    -0.10000
C1686       C  0.30155763  0.80802355  0.44836930    -0.11600
C1687       C  0.18347425  0.82885816  0.55687934    -0.10000
C1688       C  0.19711633  0.80712661  0.54536899    -0.11600
C1689       C  0.16424066  0.68389231  0.41773615    -0.10000
C1690       C  0.14323184  0.67468319  0.40106173    -0.11600
C1691       C  0.33689454  0.69096873  0.57983567    -0.10000
C1692       C  0.35759414  0.68041785  0.59612710    -0.11600
C1693       C  0.16697393  0.62935531  0.58815519    -0.10000
C1694       C  0.18302324  0.64178150  0.56851466    -0.11600
C1695       C  0.31891540  0.64196132  0.43069290    -0.10000
C1696       C  0.33318216  0.62999220  0.40954016    -0.11600
loop_ 
_geom_bond_atom_site_label_1 
_geom_bond_atom_site_label_2 
_geom_bond_distance 
_geom_bond_site_symmetry_2 
_ccdc_geom_bond_type 
O1           C17   1.275       .  A
O1           Zn7   2.021       .  S
C2           O18   1.272       .  A
C2           O15   1.276       .  A
C2         C1691   1.444       .  S
O3           C16   1.280       .  A
O3          Cd10   2.093       .  S
O4           C22   1.272       .  A
O4          Cd13   2.051       .  S
O5           C19   1.274       .  A
O5           Cd9   2.061       .  S
O6           C17   1.276       .  A
O6           Cd9   2.080       .  S
Zn7          O18   2.020       .  S
Zn7          O20   1.986       .  S
Zn7          O12   1.906       .  S
O8           C19   1.276       .  A
O8          Cd13   2.068       .  S
Cd9          O11   2.102       .  S
Cd9          O12   1.985       .  S
Cd10         O14   2.065       .  S
Cd10         O23   2.098       .  S
Cd10         O12   1.980       .  S
O11          C21   1.279       .  A
O12         Cd13   1.967       .  S
Cd13         O15   2.092       .  S
O14          C21   1.272       .  A
C16          O20   1.271       .  A
C16        C1695   1.431       .  S
C17        C1686   1.437       .  S
C19        C1688   1.428       .  S
C21        C1689   1.443       .  S
C22          O23   1.280       .  A
C22        C1694   1.435       .  S
O24          C40   1.273       .  A
O24         Zn30   2.023   1_556  S
C25          O41   1.275       .  A
C25          O38   1.275       .  A
C25        C1673   1.430       .  S
O26          C39   1.280       .  A
O26         Cd33   2.097       .  S
O27          C45   1.277       .  A
O27         Cd36   2.090       .  S
O28          C42   1.277       .  A
O28         Cd32   2.075       .  S
O29          C40   1.275       .  A
O29         Cd32   2.086       .  S
Zn30         O41   2.014       .  S
Zn30         O43   1.989       .  S
Zn30         O35   1.903   1_554  S
O31          C42   1.273       .  A
O31         Cd36   2.060   1_556  S
Cd32         O34   2.046       .  S
Cd32         O35   1.966       .  S
Cd33         O37   2.095   1_554  S
Cd33         O46   2.070       .  S
Cd33         O35   1.978   1_554  S
O34          C44   1.272       .  A
O35         Cd36   1.980   1_556  S
Cd36         O38   2.067       .  S
O37          C44   1.280       .  A
C39          O43   1.271       .  A
C39        C1683   1.433       .  S
C40        C1679   1.443       .  S
C42        C1675   1.430       .  S
C44        C1681   1.432       .  S
C45          O46   1.273       .  A
C45        C1677   1.440       .  S
O47          C63   1.273       .  A
O47         Zn53   2.030       .  S
C48          O64   1.275       .  A
C48          O61   1.275       .  A
C48        C1663   1.431       .  S
O49          C62   1.280       .  A
O49         Cd56   2.098       .  S
O50          C68   1.278       .  A
O50         Cd59   2.098       .  S
O51          C65   1.276       .  A
O51         Cd55   2.078       .  S
O52          C63   1.275       .  A
O52         Cd55   2.086       .  S
Zn53         O64   2.013       .  S
Zn53         O66   1.990       .  S
Zn53         O58   1.909       .  S
O54          C65   1.274       .  A
O54         Cd59   2.064       .  S
Cd55         O57   2.049       .  S
Cd55         O58   1.969       .  S
Cd56         O60   2.095       .  S
Cd56         O69   2.064       .  S
Cd56         O58   1.982       .  S
O57          C67   1.272       .  A
O58         Cd59   1.986       .  S
Cd59         O61   2.069       .  S
O60          C67   1.280       .  A
C62          O66   1.271       .  A
C62        C1672   1.434       .  S
C63        C1666   1.445       .  S
C65        C1661   1.433       .  S
C67        C1669   1.434       .  S
C68          O69   1.272       .  A
C68        C1667   1.441       .  S
O70          C86   1.272       .  A
O70         Zn76   2.027       .  S
C71          O87   1.275       .  A
C71          O84   1.276       .  A
C71        C1650   1.433       .  S
O72          C85   1.280       .  A
O72         Cd79   2.096       .  S
O73          C91   1.280       .  A
O73         Cd82   2.111       .  S
O74          C88   1.277       .  A
O74         Cd78   2.076       .  S
O75          C86   1.276       .  A
O75         Cd78   2.096       .  S
Zn76         O87   2.014       .  S
Zn76         O89   1.990       .  S
Zn76         O81   1.907       .  S
O77          C88   1.274       .  A
O77         Cd82   2.061       .  S
Cd78         O80   2.050       .  S
Cd78         O81   1.971       .  S
Cd79         O83   2.091       .  S
Cd79         O92   2.068       .  S
Cd79         O81   1.978       .  S
O80          C90   1.273       .  A
O81         Cd82   1.987       .  S
Cd82         O84   2.076       .  S
O83          C90   1.279       .  A
C85          O89   1.271       .  A
C85        C1660   1.434       .  S
C86        C1654   1.448       .  S
C88        C1652   1.430       .  S
C90        C1657   1.432       .  S
C91          O92   1.272       .  A
C91        C1656   1.447       .  S
O93         C109   1.272       .  A
O93         Zn99   2.021       .  S
C94         O110   1.275       .  A
C94         O107   1.276       .  A
C94        C1637   1.433       .  S
O95         C108   1.282       .  A
O95        Cd102   2.105       .  S
O96         C114   1.279       .  A
O96        Cd105   2.099       .  S
O97         C111   1.278       .  A
O97        Cd101   2.081       .  S
O98         C109   1.276       .  A
O98        Cd101   2.094       .  S
Zn99        O110   2.014       .  S
Zn99        O112   1.988       .  S
Zn99        O104   1.905       .  S
O100        C111   1.274       .  A
O100       Cd105   2.063       .  S
Cd101       O103   2.048       .  S
Cd101       O104   1.969       .  S
Cd102       O106   2.105       .  S
Cd102       O115   2.076       .  S
Cd102       O104   1.981       .  S
O103        C113   1.272       .  A
O104       Cd105   1.983       .  S
Cd105       O107   2.073       .  S
O106        C113   1.281       .  A
C108        O112   1.271       .  A
C108       C1646   1.435       .  S
C109       C1642   1.445       .  S
C111       C1639   1.433       .  S
C113       C1647   1.436       .  S
C114        O115   1.274       .  A
C114       C1644   1.445       .  S
O116        C132   1.275       .  A
O116       Zn122   2.017       .  S
C117        O133   1.272       .  A
C117        O130   1.274       .  A
C117       C1629   1.441       .  S
O118        C131   1.280       .  A
O118       Cd125   2.095       .  S
O119        C137   1.272       .  A
O119       Cd128   2.046       .  S
O120        C134   1.275       .  A
O120       Cd124   2.072       .  S
O121        C132   1.276       .  A
O121       Cd124   2.075       .  S
Zn122       O133   2.018       .  S
Zn122       O135   1.988       .  S
Zn122       O127   1.905       .  S
O123        C134   1.276       .  A
O123       Cd128   2.068       .  S
Cd124       O126   2.109       .  S
Cd124       O127   1.982       .  S
Cd125       O129   2.073       .  S
Cd125       O138   2.096       .  S
Cd125       O127   1.980       .  S
O126        C136   1.280       .  A
O127       Cd128   1.965       .  S
Cd128       O130   2.085       .  S
O129        C136   1.273       .  A
C131        O135   1.272       .  A
C131       C1634   1.431       .  S
C132       C1625   1.434       .  S
C134       C1627   1.432       .  S
C136       C1631   1.448       .  S
C137        O138   1.280       .  A
C137       C1635   1.433       .  S
O139        C155   1.275       .  A
O139       Zn145   2.016       .  S
C140        O156   1.273       .  A
C140        O153   1.275       .  A
C140       C1619   1.447       .  S
O141        C154   1.280       .  A
O141       Cd148   2.092       .  S
O142        C160   1.272       .  A
O142       Cd151   2.045       .  S
O143        C157   1.273       .  A
O143       Cd147   2.060   1_655  S
O144        C155   1.276       .  A
O144       Cd147   2.075       .  S
Zn145       O156   2.028   1_455  S
Zn145       O158   1.991       .  S
Zn145       O150   1.906       .  S
O146        C157   1.276       .  A
O146       Cd151   2.071       .  S
Cd147       O149   2.105       .  S
Cd147       O150   1.983       .  S
Cd148       O152   2.070       .  S
Cd148       O161   2.094   1_455  S
Cd148       O150   1.978       .  S
O149        C159   1.279       .  A
O150       Cd151   1.965   1_455  S
Cd151       O153   2.092       .  S
O152        C159   1.272       .  A
C154        O158   1.272       .  A
C154       C1623   1.431       .  S
C155       C1614   1.433       .  S
C157       C1615   1.429       .  S
C159       C1617   1.446       .  S
C160        O161   1.280       .  A
C160       C1621   1.432       .  S
O162        C178   1.272       .  A
O162       Zn168   2.020       .  S
C163        O179   1.275       .  A
C163        O176   1.275       .  A
C163       C1602   1.426       .  S
O164        C177   1.280       .  A
O164       Cd171   2.094       .  S
O165        C183   1.278       .  A
O165       Cd174   2.099       .  S
O166        C180   1.277       .  A
O166       Cd170   2.078       .  S
O167        C178   1.276       .  A
O167       Cd170   2.094       .  S
Zn168       O179   2.008   1_545  S
Zn168       O181   1.981   1_545  S
Zn168       O173   1.900       .  S
O169        C180   1.275       .  A
O169       Cd174   2.067   1_545  S
Cd170       O172   2.044       .  S
Cd170       O173   1.964       .  S
Cd171       O175   2.091   1_565  S
Cd171       O184   2.071       .  S
Cd171       O173   1.975   1_565  S
O172        C182   1.272       .  A
O173       Cd174   1.978   1_545  S
Cd174       O176   2.062       .  S
O175        C182   1.280       .  A
C177        O181   1.271       .  A
C177       C1609   1.429       .  S
C178       C1605   1.445       .  S
C180       C1603   1.434       .  S
C182       C1611   1.431       .  S
C183        O184   1.273       .  A
C183       C1607   1.444       .  S
O185        C201   1.276       .  A
O185       Zn191   2.021       .  S
C186        O202   1.272       .  A
C186        O199   1.274       .  A
C186       C1593   1.441       .  S
O187        C200   1.280       .  A
O187       Cd194   2.095       .  S
O188        C206   1.272       .  A
O188       Cd197   2.050       .  S
O189        C203   1.274       .  A
O189       Cd193   2.062       .  S
O190        C201   1.276       .  A
O190       Cd193   2.080       .  S
Zn191       O202   2.022       .  S
Zn191       O204   1.987       .  S
Zn191       O196   1.907       .  S
O192        C203   1.275       .  A
O192       Cd197   2.065       .  S
Cd193       O195   2.100       .  S
Cd193       O196   1.983       .  S
Cd194       O198   2.070       .  S
Cd194       O207   2.100       .  S
Cd194       O196   1.980       .  S
O195        C205   1.279       .  A
O196       Cd197   1.965       .  S
Cd197       O199   2.081       .  S
O198        C205   1.273       .  A
C200        O204   1.271       .  A
C200       C1599   1.431       .  S
C201       C1590   1.437       .  S
C203       C1591   1.428       .  S
C205       C1596   1.443       .  S
C206        O207   1.280       .  A
C206       C1597   1.436       .  S
C208        C209   1.538       .  S
C208        C214   1.527       .  S
C208        C212   1.532       .  S
C208       C1588   1.463       .  S
C209        H216   1.086       .  S
C209        C210   1.368       .  D
C210        C211   1.540       .  S
C210       C1585   1.445       .  S
C211        C215   1.538       .  S
C211        C213   1.545       .  S
C211        H217   1.112       .  S
C212        H218   1.086       .  S
C212        C213   1.364       .  D
C213       C1595   1.449       .  S
C214        H219   1.088       .  S
C214        C215   1.356       .  D
C215       C1610   1.436       .  S
C220        C221   1.530       .  S
C220        C226   1.525       .  S
C220        C224   1.536       .  S
C220       C1583   1.462       .  S
C221        H228   1.086       .  S
C221        C222   1.363       .  D
C222        C223   1.549       .  S
C222       C1606   1.450       .  S
C223        C227   1.541       .  S
C223        C225   1.543       .  S
C223        H229   1.111       .  S
C224        H230   1.086       .  S
C224        C225   1.367       .  D
C225       C1582   1.445       .  S
C226        H231   1.088       .  S
C226        C227   1.356       .  D
C227       C1622   1.438       .  S
C232        C233   1.530       .  S
C232        C238   1.527       .  S
C232        C236   1.537       .  S
C232       C1579   1.463       .  S
C233        H240   1.086       .  S
C233        C234   1.363       .  D
C234        C235   1.548       .  S
C234       C1575   1.450       .  S
C235        C239   1.542       .  S
C235        C237   1.543       .  S
C235        H241   1.111       .  S
C236        H242   1.086       .  S
C236        C237   1.368       .  D
C237       C1578   1.449       .  S
C238        H243   1.087       .  S
C238        C239   1.357       .  D
C239       C1598   1.442       .  S
C244        C245   1.538       .  S
C244        C250   1.527       .  S
C244        C248   1.532       .  S
C244       C1573   1.466       .  S
C245        H252   1.086       .  S
C245        C246   1.369       .  D
C246        C247   1.542       .  S
C246       C1571   1.449       .  S
C247        C251   1.542       .  S
C247        C249   1.548       .  S
C247        H253   1.111       .  S
C248        H254   1.086       .  S
C248        C249   1.364       .  D
C249       C1618   1.451       .  S
C250        H255   1.088       .  S
C250        C251   1.356       .  D
C251       C1648   1.442       .  S
C256        C257   1.533       .  S
C256        C262   1.527       .  S
C256        C260   1.537       .  S
C256       C1569   1.463       .  S
C257        H264   1.086       .  S
C257        C258   1.365       .  D
C258        C259   1.547       .  S
C258       C1643   1.451       .  S
C259        C263   1.539       .  S
C259        C261   1.541       .  S
C259        H265   1.111       .  S
C260        H266   1.086       .  S
C260        C261   1.367       .  D
C261       C1568   1.446       .  S
C262        H267   1.088       .  S
C262        C263   1.356       .  D
C263       C1566   1.439       .  S
C268        C269   1.535       .  S
C268        C274   1.526       .  S
C268        C272   1.531       .  S
C268       C1687   1.460       .  S
C269        H276   1.086       .  S
C269        C270   1.367       .  D
C270        C271   1.540       .  S
C270       C1563   1.442       .  S
C271        C275   1.541       .  S
C271        C273   1.546       .  S
C271        H277   1.111       .  S
C272        H278   1.086       .  S
C272        C273   1.364       .  D
C273       C1559   1.448       .  S
C274        H279   1.087       .  S
C274        C275   1.356       .  D
C275       C1562   1.438       .  S
O280        C296   1.275       .  A
O280       Zn286   2.042   1_455  S
C281        O297   1.274       .  A
C281        O294   1.273       .  A
C281       C1586   1.440       .  S
O282        C295   1.276       .  A
O282       Cd289   2.086       .  S
O283        C301   1.273       .  A
O283       Cd292   2.073       .  S
O284        C298   1.274       .  A
O284       Cd288   2.079   1_565  S
O285        C296   1.273       .  A
O285       Cd288   2.075       .  S
Zn286       O297   2.031   1_545  S
Zn286       O299   2.019       .  S
Zn286       O291   1.957   1_655  S
O287        C298   1.273       .  A
O287       Cd292   2.069   1_455  S
Cd288       O290   2.069       .  S
Cd288       O291   2.007       .  S
Cd289       O293   2.094   1_655  S
Cd289       O302   2.095       .  S
Cd289       O291   2.017   1_655  S
O290        C300   1.273       .  A
O291       Cd292   2.007   1_445  S
Cd292       O294   2.075       .  S
O293        C300   1.277       .  A
C295        O299   1.273       .  A
C295       C1581   1.439       .  S
C296       C1572   1.443       .  S
C298       C1564   1.436       .  S
C300       C1567   1.441       .  S
C301        O302   1.277   1_565  A
C301       C1577   1.443       .  S
O303        C319   1.272       .  A
O303       Zn309   2.018       .  S
C304        O320   1.275       .  A
C304        O317   1.275       .  A
C304       C1549   1.431       .  S
O305        C318   1.280       .  A
O305       Cd312   2.099       .  S
O306        C324   1.278       .  A
O306       Cd315   2.094       .  S
O307        C321   1.276       .  A
O307       Cd311   2.071       .  S
O308        C319   1.275       .  A
O308       Cd311   2.083       .  S
Zn309       O320   2.013       .  S
Zn309       O322   1.989       .  S
Zn309       O314   1.903       .  S
O310        C321   1.274       .  A
O310       Cd315   2.065       .  S
Cd311       O313   2.044       .  S
Cd311       O314   1.964       .  S
Cd312       O316   2.098       .  S
Cd312       O325   2.069       .  S
Cd312       O314   1.978       .  S
O313        C323   1.271       .  A
O314       Cd315   1.979       .  S
Cd315       O317   2.070       .  S
O316        C323   1.280       .  A
C318        O322   1.271       .  A
C318       C1555   1.434       .  S
C319       C1551   1.441       .  S
C321       C1584   1.430       .  S
C323       C1557   1.433       .  S
C324        O325   1.273       .  A
C324       C1553   1.441       .  S
O326        C342   1.272       .  A
O326       Zn332   2.021   1_655  S
C327        O343   1.275       .  A
C327        O340   1.276       .  A
C327       C1544   1.431       .  S
O328        C341   1.280       .  A
O328       Cd335   2.098       .  S
O329        C347   1.280       .  A
O329       Cd338   2.106       .  S
O330        C344   1.277       .  A
O330       Cd334   2.077       .  S
O331        C342   1.275       .  A
O331       Cd334   2.091       .  S
Zn332       O343   2.013       .  S
Zn332       O345   1.985       .  S
Zn332       O337   1.908       .  S
O333        C344   1.274       .  A
O333       Cd338   2.065   1_655  S
Cd334       O336   2.051       .  S
Cd334       O337   1.970   1_655  S
Cd335       O339   2.094   1_455  S
Cd335       O348   2.069       .  S
Cd335       O337   1.980       .  S
O336        C346   1.272       .  A
O337       Cd338   1.986       .  S
Cd338       O340   2.072       .  S
O339        C346   1.280       .  A
C341        O345   1.271       .  A
C341       C1561   1.432       .  S
C342       C1576   1.444       .  S
C344       C1542   1.432       .  S
C346       C1547   1.434       .  S
C347        O348   1.273       .  A
C347       C1545   1.446       .  S
C349        C350   1.533       .  S
C349        C355   1.526       .  S
C349        C353   1.538       .  S
C349       C1539   1.466       .  S
C350        H357   1.086       .  S
C350        C351   1.364       .  D
C351        C352   1.549       .  S
C351       C1546   1.452       .  S
C352        C356   1.541       .  S
C352        C354   1.543       .  S
C352        H358   1.111       .  S
C353        H359   1.086       .  S
C353        C354   1.369       .  D
C354       C1537   1.449       .  S
C355        H360   1.088       .  S
C355        C356   1.356       .  D
C356       C1693   1.440       .  S
C361        C362   1.532       .  S
C361        C367   1.526       .  S
C361        C365   1.539       .  S
C361       C1640   1.465       .  S
C362        H369   1.086       .  S
C362        C363   1.363       .  D
C363        C364   1.545       .  S
C363       C1668   1.447       .  S
C364        C368   1.538       .  S
C364        C366   1.541       .  S
C364        H370   1.111       .  S
C365        H371   1.086       .  S
C365        C366   1.369       .  D
C366       C1535   1.449       .  S
C367        H372   1.087       .  S
C367        C368   1.356       .  D
C368       C1624   1.437       .  S
C373        C374   1.535       .  S
C373        C379   1.526       .  S
C373        C377   1.530       .  S
C373       C1592   1.459       .  S
C374        H381   1.086       .  S
C374        C375   1.367       .  D
C375        C376   1.544       .  S
C375       C1534   1.447       .  S
C376        C380   1.541       .  S
C376        C378   1.548       .  S
C376        H382   1.111       .  S
C377        H383   1.086       .  S
C377        C378   1.363       .  D
C378       C1532   1.448       .  S
C379        H384   1.088       .  S
C379        C380   1.356       .  D
C380       C1548   1.439       .  S
C385        C386   1.536       .  S
C385        C391   1.527       .  S
C385        C389   1.533       .  S
C385       C1628   1.464       .  S
C386        H393   1.086       .  S
C386        C387   1.367       .  D
C387        C388   1.541       .  S
C387       C1530   1.446       .  S
C388        C392   1.539       .  S
C388        C390   1.548       .  S
C388        H394   1.111       .  S
C389        H395   1.086       .  S
C389        C390   1.365       .  D
C390       C1620   1.452       .  S
C391        H396   1.088       .  S
C391        C392   1.357       .  D
C392       C1558   1.439       .  S
C397        C398   1.531       .  S
C397        C403   1.527       .  S
C397        C401   1.539       .  S
C397       C1527   1.463       .  S
C398        H405   1.086       .  S
C398        C399   1.364       .  D
C399        C400   1.545       .  S
C399       C1554   1.447       .  S
C400        C404   1.539       .  S
C400        C402   1.539       .  S
C400        H406   1.112       .  S
C401        H407   1.086       .  S
C401        C402   1.368       .  D
C402       C1525   1.446       .  S
C403        H408   1.087       .  S
C403        C404   1.357       .  D
C404       C1523   1.438       .  S
C409        C410   1.537       .  S
C409        C415   1.526       .  S
C409        C413   1.531       .  S
C409       C1521   1.462       .  S
C410        H417   1.086       .  S
C410        C411   1.368       .  D
C411        C412   1.542       .  S
C411       C1519   1.448       .  S
C412        C416   1.541       .  S
C412        C414   1.548       .  S
C412        H418   1.111       .  S
C413        H419   1.086       .  S
C413        C414   1.363       .  D
C414       C1690   1.449       .  S
C415        H420   1.088       .  S
C415        C416   1.357       .  D
C416       C1670   1.440       .  S
O421        C437   1.275       .  A
O421       Zn427   2.042       .  S
C422        O438   1.275       .  A
C422        O435   1.275       .  A
C422       C1533   1.442       .  S
O423        C436   1.276       .  A
O423       Cd430   2.090       .  S
O424        C442   1.273       .  A
O424       Cd433   2.071       .  S
O425        C439   1.274       .  A
O425       Cd429   2.078   1_655  S
O426        C437   1.274       .  A
O426       Cd429   2.073       .  S
Zn427       O438   2.032   1_455  S
Zn427       O440   2.024       .  S
Zn427       O432   1.959   1_455  S
O428        C439   1.275       .  A
O428       Cd433   2.082       .  S
Cd429       O431   2.073       .  S
Cd429       O432   2.007   1_455  S
Cd430       O434   2.094       .  S
Cd430       O443   2.092   1_455  S
Cd430       O432   2.018   1_455  S
O431        C441   1.273       .  A
O432       Cd433   2.010       .  S
Cd433       O435   2.083       .  S
O434        C441   1.277       .  A
C436        O440   1.273       .  A
C436       C1538   1.443       .  S
C437       C1520   1.442       .  S
C439       C1529   1.440       .  S
C441       C1536   1.443       .  S
C442        O443   1.276       .  A
C442       C1526   1.441       .  S
C444        C445   1.536       .  S
C444        C450   1.526       .  S
C444        C448   1.530       .  S
C444       C1518   1.460       .  S
C445        H452   1.086       .  S
C445        C446   1.367       .  D
C446        C447   1.543       .  S
C446       C1515   1.447       .  S
C447        C451   1.540       .  S
C447        C449   1.546       .  S
C447        H453   1.111       .  S
C448        H454   1.086       .  S
C448        C449   1.363       .  D
C449       C1630   1.446       .  S
C450        H455   1.088       .  S
C450        C451   1.356       .  D
C451       C1658   1.438       .  S
C456        C457   1.532       .  S
C456        C462   1.527       .  S
C456        C460   1.539       .  S
C456       C1514   1.464       .  S
C457        H464   1.086       .  S
C457        C458   1.364       .  D
C458        C459   1.544       .  S
C458       C1678   1.446       .  S
C459        C463   1.538       .  S
C459        C461   1.539       .  S
C459        H465   1.112       .  S
C460        H466   1.086       .  S
C460        C461   1.368       .  D
C461       C1511   1.446       .  S
C462        H467   1.087       .  S
C462        C463   1.357       .  D
C463       C1633   1.437       .  S
C468        C469   1.536       .  S
C468        C474   1.527       .  S
C468        C472   1.530       .  S
C468       C1509   1.462       .  S
C469        H476   1.086       .  S
C469        C470   1.367       .  D
C470        C471   1.545       .  S
C470       C1507   1.449       .  S
C471        C475   1.542       .  S
C471        C473   1.551       .  S
C471        H477   1.111       .  S
C472        H478   1.086       .  S
C472        C473   1.363       .  D
C473       C1504   1.452       .  S
C474        H479   1.088       .  S
C474        C475   1.357       .  D
C475       C1505   1.442       .  S
C480        C481   1.532       .  S
C480        C486   1.527       .  S
C480        C484   1.538       .  S
C480       C1501   1.463       .  S
C481        H488   1.086       .  S
C481        C482   1.363       .  D
C482        C483   1.546       .  S
C482       C1497   1.448       .  S
C483        C487   1.538       .  S
C483        C485   1.540       .  S
C483        H489   1.111       .  S
C484        H490   1.086       .  S
C484        C485   1.368       .  D
C485       C1500   1.446       .  S
C486        H491   1.087       .  S
C486        C487   1.356       .  D
C487       C1495   1.437       .  S
C492        C493   1.535       .  S
C492        C498   1.527       .  S
C492        C496   1.531       .  S
C492       C1494   1.462       .  S
C493        H500   1.087       .  S
C493        C494   1.367       .  D
C494        C495   1.542       .  S
C494       C1491   1.446       .  S
C495        C499   1.540       .  S
C495        C497   1.548       .  S
C495        H501   1.111       .  S
C496        H502   1.086       .  S
C496        C497   1.364       .  D
C497       C1489   1.450       .  S
C498        H503   1.088       .  S
C498        C499   1.357       .  D
C499       C1682   1.438       .  S
C504        C505   1.531       .  S
C504        C510   1.526       .  S
C504        C508   1.537       .  S
C504       C1664   1.463       .  S
C505        H512   1.086       .  S
C505        C506   1.364       .  D
C506        C507   1.549       .  S
C506       C1655   1.452       .  S
C507        C511   1.542       .  S
C507        C509   1.542       .  S
C507        H513   1.111       .  S
C508        H514   1.086       .  S
C508        C509   1.368       .  D
C509       C1487   1.447       .  S
C510        H515   1.088       .  S
C510        C511   1.356       .  D
C511       C1486   1.441       .  S
O516        C532   1.275       .  A
O516       Zn522   2.032       .  S
C517        O533   1.275       .  A
C517        O530   1.274       .  A
C517       C1512   1.441       .  S
O518        C531   1.276       .  A
O518       Cd525   2.089       .  S
O519        C537   1.274       .  A
O519       Cd528   2.072       .  S
O520        C534   1.274       .  A
O520       Cd524   2.075   1_554  S
O521        C532   1.273       .  A
O521       Cd524   2.074       .  S
Zn522       O533   2.038   1_556  S
Zn522       O535   2.023       .  S
Zn522       O527   1.959       .  S
O523        C534   1.275       .  A
O523       Cd528   2.084       .  S
Cd524       O526   2.065       .  S
Cd524       O527   2.006       .  S
Cd525       O529   2.099       .  S
Cd525       O538   2.092   1_556  S
Cd525       O527   2.018       .  S
O526        C536   1.272       .  A
O527       Cd528   2.009   1_556  S
Cd528       O530   2.075       .  S
O529        C536   1.277       .  A
C531        O535   1.273       .  A
C531       C1492   1.441       .  S
C532       C1499   1.440       .  S
C534       C1488   1.441       .  S
C536       C1508   1.442       .  S
C537        O538   1.277       .  A
C537       C1516   1.441       .  S
O539        C555   1.273       .  A
O539       Zn545   2.028       .  S
C540        O556   1.276       .  A
C540        O553   1.275       .  A
C540       C1540   1.434       .  S
O541        C554   1.281       .  A
O541       Cd548   2.097       .  S
O542        C560   1.279       .  A
O542       Cd551   2.102       .  S
O543        C557   1.276       .  A
O543       Cd547   2.075       .  S
O544        C555   1.275       .  A
O544       Cd547   2.088       .  S
Zn545       O556   2.022       .  S
Zn545       O558   1.992       .  S
Zn545       O550   1.910       .  S
O546        C557   1.274       .  A
O546       Cd551   2.064       .  S
Cd547       O549   2.051       .  S
Cd547       O550   1.969       .  S
Cd548       O552   2.101       .  S
Cd548       O561   2.065       .  S
Cd548       O550   1.982       .  S
O549        C559   1.272       .  A
O550       Cd551   1.987       .  S
Cd551       O553   2.072       .  S
O552        C559   1.280       .  A
C554        O558   1.272       .  A
C554       C1484   1.433       .  S
C555       C1481   1.445       .  S
C557       C1480   1.432       .  S
C559       C1506   1.436       .  S
C560        O561   1.272       .  A
C560       C1498   1.442       .  S
C562        C563   1.540       .  S
C562        C568   1.525       .  S
C562        C566   1.533       .  S
C562       C1589   1.469       .  S
C563        H570   1.086       .  S
C563        C564   1.370       .  D
C564        C565   1.542       .  S
C564       C1477   1.451       .  S
C565        C569   1.540       .  S
C565        C567   1.549       .  S
C565        H571   1.111       .  S
C566        H572   1.086       .  S
C566        C567   1.365       .  D
C567       C1632   1.454       .  S
C568        H573   1.088       .  S
C568        C569   1.355       .  D
C569       C1475   1.438       .  S
C574        C575   1.539       .  S
C574        C580   1.526       .  S
C574        C578   1.534       .  S
C574       C1474   1.467       .  S
C575        H582   1.086       .  S
C575        C576   1.369       .  D
C576        C577   1.542       .  S
C576       C1472   1.449       .  S
C577        C581   1.540       .  S
C577        C579   1.547       .  S
C577        H583   1.111       .  S
C578        H584   1.086       .  S
C578        C579   1.365       .  D
C579       C1469   1.452       .  S
C580        H585   1.088       .  S
C580        C581   1.356       .  D
C581       C1556   1.439       .  S
C586        C587   1.538       .  S
C586        C592   1.527       .  S
C586        C590   1.531       .  S
C586       C1467   1.465       .  S
C587        H594   1.086       .  S
C587        C588   1.369       .  D
C588        C589   1.543       .  S
C588       C1465   1.451       .  S
C589        C593   1.540       .  S
C589        C591   1.548       .  S
C589        H595   1.111       .  S
C590        H596   1.086       .  S
C590        C591   1.364       .  D
C591       C1692   1.451       .  S
C592        H597   1.088       .  S
C592        C593   1.356       .  D
C593       C1483   1.438       .  S
C598        C599   1.533       .  S
C598        C604   1.526       .  S
C598        C602   1.538       .  S
C598       C1662   1.465       .  S
C599        H606   1.086       .  S
C599        C600   1.365       .  D
C600        C601   1.547       .  S
C600       C1462   1.451       .  S
C601        C605   1.539       .  S
C601        C603   1.541       .  S
C601        H607   1.111       .  S
C602        H608   1.086       .  S
C602        C603   1.368       .  D
C603       C1463   1.449       .  S
C604        H609   1.088       .  S
C604        C605   1.356       .  D
C605       C1696   1.437       .  S
C610        C611   1.528       .  S
C610        C616   1.525       .  S
C610        C614   1.537       .  S
C610       C1651   1.461       .  S
C611        H618   1.086       .  S
C611        C612   1.362       .  D
C612        C613   1.549       .  S
C612       C1552   1.448       .  S
C613        C617   1.542       .  S
C613        C615   1.544       .  S
C613        H619   1.111       .  S
C614        H620   1.086       .  S
C614        C615   1.368       .  D
C615       C1460   1.450       .  S
C616        H621   1.088       .  S
C616        C617   1.356       .  D
C617       C1636   1.439       .  S
C622        C623   1.531       .  S
C622        C628   1.526       .  S
C622        C626   1.538       .  S
C622       C1638   1.465       .  S
C623        H630   1.086       .  S
C623        C624   1.364       .  D
C624        C625   1.549       .  S
C624       C1482   1.451       .  S
C625        C629   1.540       .  S
C625        C627   1.543       .  S
C625        H631   1.111       .  S
C626        H632   1.086       .  S
C626        C627   1.369       .  D
C627       C1457   1.450       .  S
C628        H633   1.088       .  S
C628        C629   1.356       .  D
C629       C1455   1.438       .  S
O634        C650   1.276       .  A
O634       Zn640   2.044       .  S
C635        O651   1.276       .  A
C635        O648   1.275       .  A
C635       C1459   1.445       .  S
O636        C649   1.276       .  A
O636       Cd643   2.093       .  S
O637        C655   1.274       .  A
O637       Cd646   2.077       .  S
O638        C652   1.275       .  A
O638       Cd642   2.083       .  S
O639        C650   1.274       .  A
O639       Cd642   2.082       .  S
Zn640       O651   2.044       .  S
Zn640       O653   2.025       .  S
Zn640       O645   1.963       .  S
O641        C652   1.275       .  A
O641       Cd646   2.086       .  S
Cd642       O644   2.077       .  S
Cd642       O645   2.012       .  S
Cd643       O647   2.097       .  S
Cd643       O656   2.097       .  S
Cd643       O645   2.021       .  S
O644        C654   1.274       .  A
O645       Cd646   2.012       .  S
Cd646       O648   2.080       .  S
O647        C654   1.277       .  A
C649        O653   1.274       .  A
C649       C1471   1.444       .  S
C650       C1458   1.445       .  S
C652       C1464   1.443       .  S
C654       C1466   1.445       .  S
C655        O656   1.277       .  A
C655       C1478   1.445       .  S
O657        C673   1.275       .  A
O657       Zn663   2.018       .  S
C658        O674   1.272       .  A
C658        O671   1.275       .  A
C658       C1490   1.444       .  S
O659        C672   1.280       .  A
O659       Cd666   2.093       .  S
O660        C678   1.272       .  A
O660       Cd669   2.047       .  S
O661        C675   1.274       .  A
O661       Cd665   2.061       .  S
O662        C673   1.275       .  A
O662       Cd665   2.072       .  S
Zn663       O674   2.023       .  S
Zn663       O676   1.988       .  S
Zn663       O668   1.907       .  S
O664        C675   1.276       .  A
O664       Cd669   2.072       .  S
Cd665       O667   2.101       .  S
Cd665       O668   1.983       .  S
Cd666       O670   2.072       .  S
Cd666       O679   2.096       .  S
Cd666       O668   1.980       .  S
O667        C677   1.279       .  A
O668       Cd669   1.965       .  S
Cd669       O671   2.091       .  S
O670        C677   1.273       .  A
C672        O676   1.272       .  A
C672       C1496   1.431       .  S
C673       C1468   1.433       .  S
C675       C1449   1.430       .  S
C677       C1451   1.445       .  S
C678        O679   1.280       .  A
C678       C1453   1.433       .  S
O680        C696   1.276       .  A
O680       Zn686   2.019   1_565  S
C681        O697   1.273       .  A
C681        O694   1.275       .  A
C681       C1442   1.444       .  S
O682        C695   1.280       .  A
O682       Cd689   2.099       .  S
O683        C701   1.273       .  A
O683       Cd692   2.053       .  S
O684        C698   1.274       .  A
O684       Cd688   2.066   1_545  S
O685        C696   1.275       .  A
O685       Cd688   2.070       .  S
Zn686       O697   2.025       .  S
Zn686       O699   1.990   1_545  S
Zn686       O691   1.909       .  S
O687        C698   1.277       .  A
O687       Cd692   2.078       .  S
Cd688       O690   2.103       .  S
Cd688       O691   1.985   1_565  S
Cd689       O693   2.070       .  S
Cd689       O702   2.093   1_565  S
Cd689       O691   1.983   1_565  S
O690        C700   1.279       .  A
O691       Cd692   1.971       .  S
Cd692       O694   2.088       .  S
O693        C700   1.273       .  A
C695        O699   1.271       .  A
C695       C1446   1.433       .  S
C696       C1440   1.433       .  S
C698       C1574   1.434       .  S
C700       C1443   1.445       .  S
C701        O702   1.280       .  A
C701       C1447   1.434       .  S
O703        C719   1.272       .  A
O703       Zn709   2.018   1_556  S
C704        O720   1.275       .  A
C704        O717   1.276       .  A
C704       C1429   1.433       .  S
O705        C718   1.281       .  A
O705       Cd712   2.101       .  S
O706        C724   1.279       .  A
O706       Cd715   2.101       .  S
O707        C721   1.277       .  A
O707       Cd711   2.076       .  S
O708        C719   1.275       .  A
O708       Cd711   2.091       .  S
Zn709       O720   2.015       .  S
Zn709       O722   1.986       .  S
Zn709       O714   1.906   1_554  S
O710        C721   1.274       .  A
O710       Cd715   2.063   1_556  S
Cd711       O713   2.047       .  S
Cd711       O714   1.969       .  S
Cd712       O716   2.099   1_554  S
Cd712       O725   2.074       .  S
Cd712       O714   1.981   1_554  S
O713        C723   1.272       .  A
O714       Cd715   1.982   1_556  S
Cd715       O717   2.073       .  S
O716        C723   1.280       .  A
C718        O722   1.271       .  A
C718       C1438   1.434       .  S
C719       C1434   1.443       .  S
C721       C1502   1.431       .  S
C723       C1435   1.434       .  S
C724        O725   1.273       .  A
C724       C1431   1.445       .  S
C726        C727   1.537       .  S
C726        C732   1.527       .  S
C726        C730   1.533       .  S
C726       C1427   1.467       .  S
C727        H734   1.086       .  S
C727        C728   1.368       .  D
C728        C729   1.542       .  S
C728       C1426   1.448       .  S
C729        C733   1.540       .  S
C729        C731   1.547       .  S
C729        H735   1.111       .  S
C730        H736   1.086       .  S
C730        C731   1.365       .  D
C731       C1452   1.451       .  S
C732        H737   1.088       .  S
C732        C733   1.356       .  D
C733       C1436   1.440       .  S
C738        C739   1.530       .  S
C738        C744   1.524       .  S
C738        C742   1.537       .  S
C738       C1676   1.462       .  S
C739        H746   1.086       .  S
C739        C740   1.363       .  D
C740        C741   1.548       .  S
C740       C1421   1.449       .  S
C741        C745   1.541       .  S
C741        C743   1.542       .  S
C741        H747   1.111       .  S
C742        H748   1.086       .  S
C742        C743   1.369       .  D
C743       C1423   1.447       .  S
C744        H749   1.088       .  S
C744        C745   1.356       .  D
C745       C1454   1.438       .  S
C750        C751   1.533       .  S
C750        C756   1.527       .  S
C750        C754   1.539       .  S
C750       C1420   1.466       .  S
C751        H758   1.086       .  S
C751        C752   1.365       .  D
C752        C753   1.547       .  S
C752       C1432   1.451       .  S
C753        C757   1.540       .  S
C753        C755   1.541       .  S
C753        H759   1.111       .  S
C754        H760   1.086       .  S
C754        C755   1.369       .  D
C755       C1417   1.449       .  S
C756        H761   1.088       .  S
C756        C757   1.356       .  D
C757       C1445   1.439       .  S
C762        C763   1.535       .  S
C762        C768   1.527       .  S
C762        C766   1.532       .  S
C762       C1416   1.462       .  S
C763        H770   1.086       .  S
C763        C764   1.366       .  D
C764        C765   1.541       .  S
C764       C1413   1.444       .  S
C765        C769   1.541       .  S
C765        C767   1.546       .  S
C765        H771   1.111       .  S
C766        H772   1.086       .  S
C766        C767   1.364       .  D
C767       C1441   1.449       .  S
C768        H773   1.087       .  S
C768        C769   1.357       .  D
C769       C1659   1.440       .  S
C774        C775   1.538       .  S
C774        C780   1.527       .  S
C774        C778   1.531       .  S
C774       C1411   1.462       .  S
C775        H782   1.086       .  S
C775        C776   1.368       .  D
C776        C777   1.540       .  S
C776       C1409   1.446       .  S
C777        C781   1.538       .  S
C777        C779   1.545       .  S
C777        H783   1.111       .  S
C778        H784   1.086       .  S
C778        C779   1.363       .  D
C779       C1407   1.447       .  S
C780        H785   1.087       .  S
C780        C781   1.356       .  D
C781       C1405   1.437       .  S
C786        C787   1.532       .  S
C786        C792   1.527       .  S
C786        C790   1.537       .  S
C786       C1604   1.466       .  S
C787        H794   1.086       .  S
C787        C788   1.364       .  D
C788        C789   1.549       .  S
C788       C1653   1.453       .  S
C789        C793   1.541       .  S
C789        C791   1.544       .  S
C789        H795   1.111       .  S
C790        H796   1.086       .  S
C790        C791   1.368       .  D
C791       C1404   1.450       .  S
C792        H797   1.087       .  S
C792        C793   1.357       .  D
C793       C1402   1.441       .  S
O798        C814   1.275       .  A
O798       Zn804   2.039   1_565  S
C799        O815   1.275       .  A
C799        O812   1.274       .  A
C799       C1410   1.440       .  S
O800        C813   1.276       .  A
O800       Cd807   2.087   1_556  S
O801        C819   1.273       .  A
O801       Cd810   2.074       .  S
O802        C816   1.275       .  A
O802       Cd806   2.083   1_545  S
O803        C814   1.274       .  A
O803       Cd806   2.077   1_556  S
Zn804       O815   2.033       .  S
Zn804       O817   2.024   1_545  S
Zn804       O809   1.959       .  S
O805        C816   1.274       .  A
O805       Cd810   2.072       .  S
Cd806       O808   2.075       .  S
Cd806       O809   2.010   1_564  S
Cd807       O811   2.093       .  S
Cd807       O820   2.096   1_565  S
Cd807       O809   2.017   1_564  S
O808        C818   1.274       .  A
O809       Cd810   2.008   1_556  S
Cd810       O812   2.077   1_554  S
O811        C818   1.277       .  A
C813        O817   1.274       .  A
C813       C1424   1.441       .  S
C814       C1425   1.442       .  S
C816       C1414   1.439       .  S
C818       C1418   1.443       .  S
C819        O820   1.277       .  A
C819       C1403   1.444       .  S
O821        C837   1.275       .  A
O821       Zn827   2.013       .  S
C822        O838   1.273       .  A
C822        O835   1.275       .  A
C822       C1394   1.445       .  S
O823        C836   1.280       .  A
O823       Cd830   2.097       .  S
O824        C842   1.272       .  A
O824       Cd833   2.048       .  S
O825        C839   1.274       .  A
O825       Cd829   2.063   1_455  S
O826        C837   1.275       .  A
O826       Cd829   2.072       .  S
Zn827       O838   2.028   1_655  S
Zn827       O840   1.986       .  S
Zn827       O832   1.908       .  S
O828        C839   1.276       .  A
O828       Cd833   2.073       .  S
Cd829       O831   2.104       .  S
Cd829       O832   1.986       .  S
Cd830       O834   2.070       .  S
Cd830       O843   2.094   1_655  S
Cd830       O832   1.981       .  S
O831        C841   1.279       .  A
O832       Cd833   1.971   1_655  S
Cd833       O835   2.088       .  S
O834        C841   1.272       .  A
C836        O840   1.271       .  A
C836       C1397   1.433       .  S
C837       C1587   1.431       .  S
C839       C1522   1.430       .  S
C841       C1396   1.445       .  S
C842        O843   1.280       .  A
C842       C1400   1.433       .  S
O844        C860   1.275       .  A
O844       Zn850   2.018       .  S
C845        O861   1.272       .  A
C845        O858   1.274       .  A
C845       C1390   1.441       .  S
O846        C859   1.281       .  A
O846       Cd853   2.097       .  S
O847        C865   1.272       .  A
O847       Cd856   2.050       .  S
O848        C862   1.273       .  A
O848       Cd852   2.060   1_554  S
O849        C860   1.276       .  A
O849       Cd852   2.075       .  S
Zn850       O861   2.020   1_556  S
Zn850       O863   1.985       .  S
Zn850       O855   1.906       .  S
O851        C862   1.276       .  A
O851       Cd856   2.068       .  S
Cd852       O854   2.094       .  S
Cd852       O855   1.982       .  S
Cd853       O857   2.070       .  S
Cd853       O866   2.099   1_556  S
Cd853       O855   1.980       .  S
O854        C864   1.278       .  A
O855       Cd856   1.965   1_556  S
Cd856       O858   2.082       .  S
O857        C864   1.273       .  A
C859        O863   1.271       .  A
C859       C1392   1.432       .  S
C860       C1387   1.435       .  S
C862       C1517   1.428       .  S
C864       C1408   1.441       .  S
C865        O866   1.280       .  A
C865       C1401   1.435       .  S
O867        C883   1.275       .  A
O867       Zn873   2.014       .  S
C868        O884   1.273       .  A
C868        O881   1.275       .  A
C868       C1560   1.442       .  S
O869        C882   1.280       .  A
O869       Cd876   2.096       .  S
O870        C888   1.272       .  A
O870       Cd879   2.050       .  S
O871        C885   1.275       .  A
O871       Cd875   2.071   1_565  S
O872        C883   1.276       .  A
O872       Cd875   2.072       .  S
Zn873       O884   2.023   1_545  S
Zn873       O886   1.992       .  S
Zn873       O878   1.908       .  S
O874        C885   1.276       .  A
O874       Cd879   2.075       .  S
Cd875       O877   2.107       .  S
Cd875       O878   1.985       .  S
Cd876       O880   2.064       .  S
Cd876       O889   2.088   1_545  S
Cd876       O878   1.982       .  S
O877        C887   1.280       .  A
O878       Cd879   1.970   1_545  S
Cd879       O881   2.086       .  S
O880        C887   1.272       .  A
C882        O886   1.271       .  A
C882       C1565   1.433       .  S
C883       C1381   1.432       .  S
C885       C1428   1.435       .  S
C887       C1384   1.444       .  S
C888        O889   1.279       .  A
C888       C1386   1.432       .  S
C890        C891   1.540       .  S
C890        C896   1.526       .  S
C890        C894   1.532       .  S
C890       C1380   1.467       .  S
C891        H898   1.086       .  S
C891        C892   1.370       .  D
C892        C893   1.543       .  S
C892       C1378   1.452       .  S
C893        C897   1.538       .  S
C893        C895   1.548       .  S
C893        H899   1.111       .  S
C894        H900   1.086       .  S
C894        C895   1.364       .  D
C895       C1383   1.451       .  S
C896        H901   1.087       .  S
C896        C897   1.356       .  D
C897       C1376   1.437       .  S
C902        C903   1.538       .  S
C902        C908   1.525       .  S
C902        C906   1.532       .  S
C902       C1439   1.464       .  S
C903        H910   1.086       .  S
C903        C904   1.369       .  D
C904        C905   1.542       .  S
C904       C1374   1.448       .  S
C905        C909   1.542       .  S
C905        C907   1.548       .  S
C905        H911   1.111       .  S
C906        H912   1.086       .  S
C906        C907   1.364       .  D
C907       C1393   1.451       .  S
C908        H913   1.088       .  S
C908        C909   1.355       .  D
C909       C1437   1.439       .  S
C914        C915   1.537       .  S
C914        C920   1.524       .  S
C914        C918   1.529       .  S
C914       C1616   1.461       .  S
C915        H922   1.086       .  S
C915        C916   1.368       .  D
C916        C917   1.542       .  S
C916       C1372   1.449       .  S
C917        C921   1.540       .  S
C917        C919   1.548       .  S
C917        H923   1.111       .  S
C918        H924   1.086       .  S
C918        C919   1.363       .  D
C919       C1389   1.447       .  S
C920        H925   1.088       .  S
C920        C921   1.356       .  D
C921       C1612   1.437       .  S
C926        C927   1.532       .  S
C926        C932   1.527       .  S
C926        C930   1.537       .  S
C926       C1674   1.462       .  S
C927        H934   1.086       .  S
C927        C928   1.364       .  D
C928        C929   1.547       .  S
C928       C1608   1.450       .  S
C929        C933   1.540       .  S
C929        C931   1.543       .  S
C929        H935   1.111       .  S
C930        H936   1.086       .  S
C930        C931   1.367       .  D
C931       C1370   1.449       .  S
C932        H937   1.087       .  S
C932        C933   1.356       .  D
C933       C1398   1.439       .  S
C938        C939   1.530       .  S
C938        C944   1.524       .  S
C938        C942   1.537       .  S
C938       C1543   1.463       .  S
C939        H946   1.086       .  S
C939        C940   1.363       .  D
C940        C941   1.548       .  S
C940       C1433   1.449       .  S
C941        C945   1.541       .  S
C941        C943   1.545       .  S
C941        H947   1.111       .  S
C942        H948   1.086       .  S
C942        C943   1.369       .  D
C943       C1367   1.450       .  S
C944        H949   1.088       .  S
C944        C945   1.355       .  D
C945       C1385   1.437       .  S
C950        C951   1.529       .  S
C950        C956   1.526       .  S
C950        C954   1.536       .  S
C950       C1366   1.460       .  S
C951        H958   1.086       .  S
C951        C952   1.362       .  D
C952        C953   1.548       .  S
C952       C1361   1.449       .  S
C953        C957   1.541       .  S
C953        C955   1.542       .  S
C953        H959   1.111       .  S
C954        H960   1.087       .  S
C954        C955   1.367       .  D
C955       C1363   1.446       .  S
C956        H961   1.088       .  S
C956        C957   1.356       .  D
C957       C1391   1.438       .  S
O962        C978   1.275       .  A
O962       Zn968   2.042   1_554  S
C963        O979   1.276       .  A
C963        O976   1.274       .  A
C963       C1377   1.446       .  S
O964        C977   1.276       .  A
O964       Cd971   2.091   1_545  S
O965        C983   1.273       .  A
O965       Cd974   2.072       .  S
O966        C980   1.276       .  A
O966       Cd970   2.088   1_465  S
O967        C978   1.275       .  A
O967       Cd970   2.079       .  S
Zn968       O979   2.044   1_655  S
Zn968       O981   2.019       .  S
Zn968       O973   1.961   1_556  S
O969        C980   1.274       .  A
O969       Cd974   2.076   1_554  S
Cd970       O972   2.073   1_545  S
Cd970       O973   2.011       .  S
Cd971       O975   2.099   1_556  S
Cd971       O984   2.099       .  S
Cd971       O973   2.022   1_566  S
O972        C982   1.273       .  A
O973       Cd974   2.008   1_644  S
Cd974       O976   2.081   1_565  S
O975        C982   1.277       .  A
C977        O981   1.273       .  A
C977       C1364   1.440       .  S
C978       C1371   1.443       .  S
C980       C1373   1.442       .  S
C982       C1369   1.443       .  S
C983        O984   1.277   1_455  A
C983       C1368   1.444       .  S
O985       C1001   1.275       .  A
O985       Zn991   2.017       .  S
C986       O1002   1.272       .  A
C986        O999   1.275       .  A
C986       C1358   1.444       .  S
O987       C1000   1.280       .  A
O987       Cd994   2.094       .  S
O988       C1006   1.272       .  A
O988       Cd997   2.047       .  S
O989       C1003   1.275       .  A
O989       Cd993   2.067   1_554  S
O990       C1001   1.277       .  A
O990       Cd993   2.081       .  S
Zn991      O1002   2.024   1_556  S
Zn991      O1004   1.986       .  S
Zn991       O996   1.907       .  S
O992       C1003   1.276       .  A
O992       Cd997   2.065       .  S
Cd993       O995   2.111       .  S
Cd993       O996   1.986       .  S
Cd994       O998   2.067       .  S
Cd994      O1007   2.098   1_556  S
Cd994       O996   1.980       .  S
O995       C1005   1.280       .  A
O996       Cd997   1.966   1_556  S
Cd997       O999   2.089       .  S
O998       C1005   1.272       .  A
C1000      O1004   1.271       .  A
C1000      C1360   1.431       .  S
C1001      C1379   1.436       .  S
C1003      C1415   1.429       .  S
C1005      C1503   1.446       .  S
C1006      O1007   1.280       .  A
C1006      C1485   1.435       .  S
O1008      C1024   1.275       .  A
O1008     Zn1014   2.017       .  S
C1009      O1025   1.272       .  A
C1009      O1022   1.275       .  A
C1009      C1531   1.442       .  S
O1010      C1023   1.280       .  A
O1010     Cd1017   2.097       .  S
O1011      C1029   1.272       .  A
O1011     Cd1020   2.048       .  S
O1012      C1026   1.275       .  A
O1012     Cd1016   2.068       .  S
O1013      C1024   1.276       .  A
O1013     Cd1016   2.077       .  S
Zn1014     O1025   2.019       .  S
Zn1014     O1027   1.982       .  S
Zn1014     O1019   1.906       .  S
O1015      C1026   1.276       .  A
O1015     Cd1020   2.069       .  S
Cd1016     O1018   2.108       .  S
Cd1016     O1019   1.984       .  S
Cd1017     O1021   2.075       .  S
Cd1017     O1030   2.096       .  S
Cd1017     O1019   1.981       .  S
O1018      C1028   1.280       .  A
O1019     Cd1020   1.969       .  S
Cd1020     O1022   2.088       .  S
O1021      C1028   1.273       .  A
C1023      O1027   1.271       .  A
C1023      C1524   1.431       .  S
C1024      C1473   1.435       .  S
C1026      C1493   1.430       .  S
C1028      C1353   1.448       .  S
C1029      O1030   1.280       .  A
C1029      C1355   1.434       .  S
O1031      C1047   1.273       .  A
O1031     Zn1037   2.027   1_655  S
C1032      O1048   1.276       .  A
C1032      O1045   1.275       .  A
C1032      C1570   1.431       .  S
O1033      C1046   1.280       .  A
O1033     Cd1040   2.095       .  S
O1034      C1052   1.278       .  A
O1034     Cd1043   2.096       .  S
O1035      C1049   1.276       .  A
O1035     Cd1039   2.074       .  S
O1036      C1047   1.274       .  A
O1036     Cd1039   2.084       .  S
Zn1037     O1048   2.018       .  S
Zn1037     O1050   1.988       .  S
Zn1037     O1042   1.907   1_455  S
O1038      C1049   1.274       .  A
O1038     Cd1043   2.062   1_655  S
Cd1039     O1041   2.043       .  S
Cd1039     O1042   1.966       .  S
Cd1040     O1044   2.095   1_455  S
Cd1040     O1053   2.071       .  S
Cd1040     O1042   1.981   1_455  S
O1041      C1051   1.271       .  A
O1042     Cd1043   1.981   1_655  S
Cd1043     O1045   2.067       .  S
O1044      C1051   1.280       .  A
C1046      O1050   1.271       .  A
C1046      C1375   1.431       .  S
C1047      C1362   1.443       .  S
C1049      C1528   1.431       .  S
C1051      C1352   1.432       .  S
C1052      O1053   1.273       .  A
C1052      C1349   1.443       .  S
C1054      C1055   1.539       .  S
C1054      C1060   1.526       .  S
C1054      C1058   1.533       .  S
C1054      C1388   1.467       .  S
C1055      H1062   1.086       .  S
C1055      C1056   1.369       .  D
C1056      C1057   1.543       .  S
C1056      C1347   1.451       .  S
C1057      C1061   1.539       .  S
C1057      C1059   1.549       .  S
C1057      H1063   1.111       .  S
C1058      H1064   1.086       .  S
C1058      C1059   1.365       .  D
C1059      C1354   1.454       .  S
C1060      H1065   1.088       .  S
C1060      C1061   1.356       .  D
C1061      C1351   1.438       .  S
C1066      C1067   1.533       .  S
C1066      C1072   1.526       .  S
C1066      C1070   1.537       .  S
C1066      C1479   1.464       .  S
C1067      H1074   1.086       .  S
C1067      C1068   1.365       .  D
C1068      C1069   1.545       .  S
C1068      C1350   1.449       .  S
C1069      C1073   1.538       .  S
C1069      C1071   1.541       .  S
C1069      H1075   1.111       .  S
C1070      H1076   1.086       .  S
C1070      C1071   1.368       .  D
C1071      C1345   1.447       .  S
C1072      H1077   1.088       .  S
C1072      C1073   1.356       .  D
C1073      C1359   1.437       .  S
C1078      C1079   1.530       .  S
C1078      C1084   1.526       .  S
C1078      C1082   1.537       .  S
C1078      C1541   1.464       .  S
C1079      H1086   1.086       .  S
C1079      C1080   1.363       .  D
C1080      C1081   1.548       .  S
C1080      C1680   1.449       .  S
C1081      C1085   1.541       .  S
C1081      C1083   1.543       .  S
C1081      H1087   1.111       .  S
C1082      H1088   1.086       .  S
C1082      C1083   1.369       .  D
C1083      C1343   1.450       .  S
C1084      H1089   1.088       .  S
C1084      C1085   1.356       .  D
C1085      C1356   1.440       .  S
C1090      C1091   1.539       .  S
C1090      C1096   1.527       .  S
C1090      C1094   1.531       .  S
C1090      C1613   1.465       .  S
C1091      H1098   1.086       .  S
C1091      C1092   1.370       .  D
C1092      C1093   1.543       .  S
C1092      C1341   1.452       .  S
C1093      C1097   1.540       .  S
C1093      C1095   1.548       .  S
C1093      H1099   1.111       .  S
C1094      H1100   1.086       .  S
C1094      C1095   1.363       .  D
C1095      C1357   1.450       .  S
C1096      H1101   1.088       .  S
C1096      C1097   1.356       .  D
C1097      C1671   1.439       .  S
C1102      C1103   1.538       .  S
C1102      C1108   1.526       .  S
C1102      C1106   1.533       .  S
C1102      C1626   1.466       .  S
C1103      H1110   1.086       .  S
C1103      C1104   1.368       .  D
C1104      C1105   1.542       .  S
C1104      C1340   1.449       .  S
C1105      C1109   1.540       .  S
C1105      C1107   1.547       .  S
C1105      H1111   1.111       .  S
C1106      H1112   1.086       .  S
C1106      C1107   1.365       .  D
C1107      C1395   1.451       .  S
C1108      H1113   1.088       .  S
C1108      C1109   1.356       .  D
C1109      C1684   1.439       .  S
C1114      C1115   1.532       .  S
C1114      C1120   1.526       .  S
C1114      C1118   1.537       .  S
C1114      C1430   1.465       .  S
C1115      H1122   1.086       .  S
C1115      C1116   1.365       .  D
C1116      C1117   1.548       .  S
C1116      C1665   1.451       .  S
C1117      C1121   1.541       .  S
C1117      C1119   1.543       .  S
C1117      H1123   1.111       .  S
C1118      H1124   1.086       .  S
C1118      C1119   1.368       .  D
C1119      C1338   1.450       .  S
C1120      H1125   1.088       .  S
C1120      C1121   1.356       .  D
C1121      C1399   1.439       .  S
O1126      C1142   1.275       .  A
O1126     Zn1132   2.039   1_455  S
C1127      O1143   1.275       .  A
C1127      O1140   1.274       .  A
C1127      C1344   1.444       .  S
O1128      C1141   1.277       .  A
O1128     Cd1135   2.093       .  S
O1129      C1147   1.273       .  A
O1129     Cd1138   2.074       .  S
O1130      C1144   1.275       .  A
O1130     Cd1134   2.081   1_556  S
O1131      C1142   1.275       .  A
O1131     Cd1134   2.084       .  S
Zn1132     O1143   2.042   1_554  S
Zn1132     O1145   2.023       .  S
Zn1132     O1137   1.961   1_654  S
O1133      C1144   1.275       .  A
O1133     Cd1138   2.083   1_455  S
Cd1134     O1136   2.080       .  S
Cd1134     O1137   2.012   1_554  S
Cd1135     O1139   2.096   1_655  S
Cd1135     O1148   2.100   1_554  S
Cd1135     O1137   2.020   1_654  S
O1136      C1146   1.275       .  A
O1137     Cd1138   2.011   1_455  S
Cd1138     O1140   2.080       .  S
O1139      C1146   1.277       .  A
C1141      O1145   1.273       .  A
C1141      C1339   1.443       .  S
C1142      C1337   1.444       .  S
C1144      C1346   1.441       .  S
C1146      C1342   1.446       .  S
C1147      O1148   1.277       .  A
C1147      C1348   1.445       .  S
O1149      C1165   1.273       .  A
O1149     Zn1155   2.026       .  S
C1150      O1166   1.276       .  A
C1150      O1163   1.276       .  A
C1150      C1419   1.434       .  S
O1151      C1164   1.280       .  A
O1151     Cd1158   2.094       .  S
O1152      C1170   1.279       .  A
O1152     Cd1161   2.102       .  S
O1153      C1167   1.276       .  A
O1153     Cd1157   2.073       .  S
O1154      C1165   1.274       .  A
O1154     Cd1157   2.081       .  S
Zn1155     O1166   2.018       .  S
Zn1155     O1168   1.990       .  S
Zn1155     O1160   1.907       .  S
O1156      C1167   1.274       .  A
O1156     Cd1161   2.064       .  S
Cd1157     O1159   2.043       .  S
Cd1157     O1160   1.967       .  S
Cd1158     O1162   2.094       .  S
Cd1158     O1171   2.071       .  S
Cd1158     O1160   1.981       .  S
O1159      C1169   1.271       .  A
O1160     Cd1161   1.982       .  S
Cd1161     O1163   2.074       .  S
O1162      C1169   1.279       .  A
C1164      O1168   1.271       .  A
C1164      C1336   1.432       .  S
C1165      C1333   1.442       .  S
C1167      C1513   1.432       .  S
C1169      C1476   1.431       .  S
C1170      O1171   1.273       .  A
C1170      C1461   1.445       .  S
O1172      C1188   1.275       .  A
O1172     Zn1178   2.010       .  S
C1173      O1189   1.273       .  A
C1173      O1186   1.274       .  A
C1173      C1329   1.444       .  S
O1174      C1187   1.280       .  A
O1174     Cd1181   2.097       .  S
O1175      C1193   1.272       .  A
O1175     Cd1184   2.047       .  S
O1176      C1190   1.274       .  A
O1176     Cd1180   2.061       .  S
O1177      C1188   1.275       .  A
O1177     Cd1180   2.070       .  S
Zn1178     O1189   2.027       .  S
Zn1178     O1191   1.987       .  S
Zn1178     O1183   1.908       .  S
O1179      C1190   1.276       .  A
O1179     Cd1184   2.072       .  S
Cd1180     O1182   2.103       .  S
Cd1180     O1183   1.986       .  S
Cd1181     O1185   2.074       .  S
Cd1181     O1194   2.093       .  S
Cd1181     O1183   1.981       .  S
O1182      C1192   1.279       .  A
O1183     Cd1184   1.971       .  S
Cd1184     O1186   2.084       .  S
O1185      C1192   1.273       .  A
C1187      O1191   1.271       .  A
C1187      C1331   1.433       .  S
C1188      C1412   1.430       .  S
C1190      C1510   1.430       .  S
C1192      C1470   1.446       .  S
C1193      O1194   1.280       .  A
C1193      C1456   1.432       .  S
O1195      C1211   1.272       .  A
O1195     Zn1201   2.019   1_565  S
C1196      O1212   1.274       .  A
C1196      O1209   1.275       .  A
C1196      C1365   1.428       .  S
O1197      C1210   1.280       .  A
O1197     Cd1204   2.097       .  S
O1198      C1216   1.279       .  A
O1198     Cd1207   2.100       .  S
O1199      C1213   1.277       .  A
O1199     Cd1203   2.074       .  S
O1200      C1211   1.275       .  A
O1200     Cd1203   2.090       .  S
Zn1201     O1212   2.007       .  S
Zn1201     O1214   1.981       .  S
Zn1201     O1206   1.901       .  S
O1202      C1213   1.274   1_545  A
O1202     Cd1207   2.063       .  S
Cd1203     O1205   2.049       .  S
Cd1203     O1206   1.967   1_565  S
Cd1204     O1208   2.096   1_545  S
Cd1204     O1217   2.069       .  S
Cd1204     O1206   1.977       .  S
O1205      C1215   1.272       .  A
O1206     Cd1207   1.980       .  S
Cd1207     O1209   2.067       .  S
O1208      C1215   1.280       .  A
C1210      O1214   1.271       .  A
C1210      C1406   1.431       .  S
C1211      C1422   1.443       .  S
C1213      C1580   1.431       .  S
C1215      C1327   1.434       .  S
C1216      O1217   1.273       .  A
C1216      C1325   1.444       .  S
C1218      C1219   1.537       .  S
C1218      C1224   1.525       .  S
C1218      C1222   1.531       .  S
C1218      C1382   1.463       .  S
C1219      H1226   1.086       .  S
C1219      C1220   1.368       .  D
C1220      C1221   1.542       .  S
C1220      C1323   1.447       .  S
C1221      C1225   1.543       .  S
C1221      C1223   1.548       .  S
C1221      H1227   1.111       .  S
C1222      H1228   1.086       .  S
C1222      C1223   1.363       .  D
C1223      C1330   1.449       .  S
C1224      H1229   1.088       .  S
C1224      C1225   1.356       .  D
C1225      C1645   1.441       .  S
C1230      C1231   1.537       .  S
C1230      C1236   1.525       .  S
C1230      C1234   1.530       .  S
C1230      C1450   1.462       .  S
C1231      H1238   1.086       .  S
C1231      C1232   1.368       .  D
C1232      C1233   1.542       .  S
C1232      C1321   1.449       .  S
C1233      C1237   1.541       .  S
C1233      C1235   1.548       .  S
C1233      H1239   1.111       .  S
C1234      H1240   1.086       .  S
C1234      C1235   1.363       .  D
C1235      C1594   1.447       .  S
C1236      H1241   1.088       .  S
C1236      C1237   1.356       .  D
C1237      C1328   1.439       .  S
C1242      C1243   1.532       .  S
C1242      C1248   1.527       .  S
C1242      C1246   1.537       .  S
C1242      C1550   1.463       .  S
C1243      H1250   1.086       .  S
C1243      C1244   1.364       .  D
C1244      C1245   1.548       .  S
C1244      C1326   1.450       .  S
C1245      C1249   1.540       .  S
C1245      C1247   1.542       .  S
C1245      H1251   1.111       .  S
C1246      H1252   1.086       .  S
C1246      C1247   1.367       .  D
C1247      C1319   1.448       .  S
C1248      H1253   1.087       .  S
C1248      C1249   1.356       .  D
C1249      C1332   1.439       .  S
C1254      C1255   1.540       .  S
C1254      C1260   1.527       .  S
C1254      C1258   1.533       .  S
C1254      C1685   1.469       .  S
C1255      H1262   1.086       .  S
C1255      C1256   1.370       .  D
C1256      C1257   1.542       .  S
C1256      C1318   1.452       .  S
C1257      C1261   1.538       .  S
C1257      C1259   1.547       .  S
C1257      H1263   1.111       .  S
C1258      H1264   1.086       .  S
C1258      C1259   1.365       .  D
C1259      C1444   1.452       .  S
C1260      H1265   1.087       .  S
C1260      C1261   1.356       .  D
C1261      C1335   1.437       .  S
C1266      C1267   1.530       .  S
C1266      C1272   1.526       .  S
C1266      C1270   1.535       .  S
C1266      C1601   1.458       .  S
C1267      H1274   1.086       .  S
C1267      C1268   1.363       .  D
C1268      C1269   1.547       .  S
C1268      C1334   1.447       .  S
C1269      C1273   1.539       .  S
C1269      C1271   1.541       .  S
C1269      H1275   1.111       .  S
C1270      H1276   1.087       .  S
C1270      C1271   1.366       .  D
C1271      C1315   1.443       .  S
C1272      H1277   1.088       .  S
C1272      C1273   1.356       .  D
C1273      C1600   1.437       .  S
C1278      C1279   1.530       .  S
C1278      C1284   1.526       .  S
C1278      C1282   1.538       .  S
C1278      C1649   1.465       .  S
C1279      H1286   1.086       .  S
C1279      C1280   1.363       .  D
C1280      C1281   1.549       .  S
C1280      C1641   1.451       .  S
C1281      C1285   1.541       .  S
C1281      C1283   1.545       .  S
C1281      H1287   1.111       .  S
C1282      H1288   1.086       .  S
C1282      C1283   1.369       .  D
C1283      C1313   1.451       .  S
C1284      H1289   1.088       .  S
C1284      C1285   1.356       .  D
C1285      C1448   1.440       .  S
O1290      C1306   1.276       .  A
O1290     Zn1296   2.044       .  S
C1291      O1307   1.276       .  A
C1291      O1304   1.274       .  A
C1291      C1317   1.446       .  S
O1292      C1305   1.276   1_545  A
O1292     Cd1299   2.086       .  S
O1293      C1311   1.273       .  A
O1293     Cd1302   2.074       .  S
O1294      C1308   1.275       .  A
O1294     Cd1298   2.086       .  S
O1295      C1306   1.274       .  A
O1295     Cd1298   2.079   1_565  S
Zn1296     O1307   2.043       .  S
Zn1296     O1309   2.017       .  S
Zn1296     O1301   1.961   1_565  S
O1297      C1308   1.274       .  A
O1297     Cd1302   2.074       .  S
Cd1298     O1300   2.071       .  S
Cd1298     O1301   2.010       .  S
Cd1299     O1303   2.098       .  S
Cd1299     O1312   2.098       .  S
Cd1299     O1301   2.021       .  S
O1300      C1310   1.273       .  A
O1301     Cd1302   2.007       .  S
Cd1302     O1304   2.080   1_545  S
O1303      C1310   1.277       .  A
C1305      O1309   1.273       .  A
C1305      C1316   1.438       .  S
C1306      C1322   1.444       .  S
C1308      C1324   1.441       .  S
C1310      C1320   1.443       .  S
C1311      O1312   1.277       .  A
C1311      C1314   1.445       .  S
C1313      C1314   1.212       .  T
C1315      C1316   1.207       .  T
C1317      C1318   1.212       .  T
C1319      C1320   1.210       .  T
C1321      C1322   1.211       .  T
C1323      C1324   1.209       .  T
C1325      C1326   1.211       .  T
C1327      C1328   1.205       .  T
C1329      C1330   1.211       .  T
C1331      C1332   1.205       .  T
C1333      C1334   1.210       .  T
C1335      C1336   1.204       .  T
C1337      C1338   1.211       .  T
C1339      C1340   1.211       .  T
C1341      C1342   1.212       .  T
C1343      C1344   1.211       .  T
C1345      C1346   1.209       .  T
C1347      C1348   1.211       .  T
C1349      C1350   1.211       .  T
C1351      C1352   1.204       .  T
C1353      C1354   1.213       .  T
C1355      C1356   1.205       .  T
C1357      C1358   1.211       .  T
C1359      C1360   1.203       .  T
C1361      C1362   1.211       .  T
C1363      C1364   1.209       .  T
C1365      C1366   1.202       .  T
C1367      C1368   1.211       .  T
C1369      C1370   1.211       .  T
C1371      C1372   1.210       .  T
C1373      C1374   1.210       .  T
C1375      C1376   1.204       .  T
C1377      C1378   1.212       .  T
C1379      C1380   1.206       .  T
C1381      C1382   1.204       .  T
C1383      C1384   1.212       .  T
C1385      C1386   1.204       .  T
C1387      C1388   1.206       .  T
C1389      C1390   1.210       .  T
C1391      C1392   1.204       .  T
C1393      C1394   1.212       .  T
C1395      C1396   1.212       .  T
C1397      C1398   1.205       .  T
C1399      C1400   1.205       .  T
C1401      C1402   1.206       .  T
C1403      C1404   1.211       .  T
C1405      C1406   1.203       .  T
C1407      C1408   1.209       .  T
C1409      C1410   1.209       .  T
C1411      C1412   1.203       .  T
C1413      C1414   1.208       .  T
C1415      C1416   1.203       .  T
C1417      C1418   1.210       .  T
C1419      C1420   1.205       .  T
C1421      C1422   1.211       .  T
C1423      C1424   1.209       .  T
C1425      C1426   1.210       .  T
C1427      C1428   1.206       .  T
C1429      C1430   1.205       .  T
C1431      C1432   1.212       .  T
C1433      C1434   1.211       .  T
C1435      C1436   1.205       .  T
C1437      C1438   1.205       .  T
C1439      C1440   1.205       .  T
C1441      C1442   1.211       .  T
C1443      C1444   1.212       .  T
C1445      C1446   1.205       .  T
C1447      C1448   1.205       .  T
C1449      C1450   1.203       .  T
C1451      C1452   1.212       .  T
C1453      C1454   1.205       .  T
C1455      C1456   1.204       .  T
C1457      C1458   1.211       .  T
C1459      C1460   1.211       .  T
C1461      C1462   1.212       .  T
C1463      C1464   1.210       .  T
C1465      C1466   1.212       .  T
C1467      C1468   1.205       .  T
C1469      C1470   1.213       .  T
C1471      C1472   1.211       .  T
C1473      C1474   1.206       .  T
C1475      C1476   1.204       .  T
C1477      C1478   1.212       .  T
C1479      C1480   1.204       .  T
C1481      C1482   1.212       .  T
C1483      C1484   1.205       .  T
C1485      C1486   1.206       .  T
C1487      C1488   1.209       .  T
C1489      C1490   1.211       .  T
C1491      C1492   1.209       .  T
C1493      C1494   1.203       .  T
C1495      C1496   1.203       .  T
C1497      C1498   1.210       .  T
C1499      C1500   1.209       .  T
C1501      C1502   1.204       .  T
C1503      C1504   1.212       .  T
C1505      C1506   1.207       .  T
C1507      C1508   1.210       .  T
C1509      C1510   1.203       .  T
C1511      C1512   1.209       .  T
C1513      C1514   1.204       .  T
C1515      C1516   1.209       .  T
C1517      C1518   1.202       .  T
C1519      C1520   1.210       .  T
C1521      C1522   1.203       .  T
C1523      C1524   1.204       .  T
C1525      C1526   1.209       .  T
C1527      C1528   1.204       .  T
C1529      C1530   1.209       .  T
C1531      C1532   1.210       .  T
C1533      C1534   1.210       .  T
C1535      C1536   1.211       .  T
C1537      C1538   1.210       .  T
C1539      C1540   1.205       .  T
C1541      C1542   1.204       .  T
C1543      C1544   1.204       .  T
C1545      C1546   1.212       .  T
C1547      C1548   1.205       .  T
C1549      C1550   1.203       .  T
C1551      C1552   1.210       .  T
C1553      C1554   1.210       .  T
C1555      C1556   1.205       .  T
C1557      C1558   1.205       .  T
C1559      C1560   1.210       .  T
C1561      C1562   1.204       .  T
C1563      C1564   1.206       .  T
C1565      C1566   1.205       .  T
C1567      C1568   1.209       .  T
C1569      C1570   1.204       .  T
C1571      C1572   1.210       .  T
C1573      C1574   1.205       .  T
C1575      C1576   1.211       .  T
C1577      C1578   1.210       .  T
C1579      C1580   1.203       .  T
C1581      C1582   1.208       .  T
C1583      C1584   1.203       .  T
C1585      C1586   1.208       .  T
C1587      C1588   1.204       .  T
C1589      C1590   1.207       .  T
C1591      C1592   1.201       .  T
C1593      C1594   1.210       .  T
C1595      C1596   1.210       .  T
C1597      C1598   1.206       .  T
C1599      C1600   1.204       .  T
C1601      C1602   1.201       .  T
C1603      C1604   1.205       .  T
C1605      C1606   1.212       .  T
C1607      C1608   1.211       .  T
C1609      C1610   1.203       .  T
C1611      C1612   1.204       .  T
C1613      C1614   1.205       .  T
C1615      C1616   1.202       .  T
C1617      C1618   1.212       .  T
C1619      C1620   1.213       .  T
C1621      C1622   1.204       .  T
C1623      C1624   1.203       .  T
C1625      C1626   1.205       .  T
C1627      C1628   1.204       .  T
C1629      C1630   1.209       .  T
C1631      C1632   1.214       .  T
C1633      C1634   1.204       .  T
C1635      C1636   1.205       .  T
C1637      C1638   1.205       .  T
C1639      C1640   1.205       .  T
C1641      C1642   1.212       .  T
C1643      C1644   1.212       .  T
C1645      C1646   1.206       .  T
C1647      C1648   1.207       .  T
C1649      C1650   1.205       .  T
C1651      C1652   1.203       .  T
C1653      C1654   1.213       .  T
C1655      C1656   1.213       .  T
C1657      C1658   1.204       .  T
C1659      C1660   1.205       .  T
C1661      C1662   1.205       .  T
C1663      C1664   1.204       .  T
C1665      C1666   1.212       .  T
C1667      C1668   1.209       .  T
C1669      C1670   1.205       .  T
C1671      C1672   1.205       .  T
C1673      C1674   1.203       .  T
C1675      C1676   1.203       .  T
C1677      C1678   1.209       .  T
C1679      C1680   1.211       .  T
C1681      C1682   1.204       .  T
C1683      C1684   1.205       .  T
C1685      C1686   1.207       .  T
C1687      C1688   1.202       .  T
C1689      C1690   1.210       .  T
C1691      C1692   1.211       .  T
C1693      C1694   1.206       .  T
C1695      C1696   1.203       .  T
