geometry optimzed in LAMMPS
_audit_creation_date              2020-11-30 
_audit_creation_method            'lammps2cif' 
_symmetry_space_group_name_H-M    'P1' 
_symmetry_Int_Tables_number       1 
_symmetry_cell_setting            triclinic 
loop_ 
_symmetry_equiv_pos_as_xyz 
  x,y,z 
_cell_length_a                    79.19363664 
_cell_length_b                    79.14529323972047 
_cell_length_c                    79.18957727897578 
_cell_angle_alpha                 90.0042678953705 
_cell_angle_beta                  89.99583416435075 
_cell_angle_gamma                 90.00436540895946 
loop_ 
_atom_site_label 
_atom_site_type_symbol 
_atom_site_fract_x 
_atom_site_fract_y 
_atom_site_fract_z 
_atom_site_charge 
N1          N  0.22531581  0.98921191  0.61558983    -0.25400
N2          N  0.21021297  0.99455436  0.61077116    -0.33300
C3          C  0.20074697  0.98122096  0.60616674     0.02900
C4          C  0.21020843  0.96674212  0.60815027     0.08900
C5          C  0.22572699  0.97218689  0.61419708    -0.04200
H6          H  0.18762476  0.98196694  0.60243083     0.09600
H7          H  0.23627532  0.96433860  0.61791638     0.10800
Cu8        Cu  0.20173722  0.01931329  0.61260773     0.44200
Cu9        Cu  0.24410725  0.00555118  0.62496656     0.42000
Cu10       Cu  0.22891413  0.04837078  0.63362863     0.43900
N11         N  0.19438782  0.04378117  0.61855838    -0.32800
N12         N  0.20435511  0.05444880  0.62666146    -0.27100
C13         C  0.19599626  0.06905483  0.62916066    -0.03200
C14         C  0.18003512  0.06742410  0.62230845     0.09000
C15         C  0.17939382  0.05128496  0.61568831     0.02800
H16         H  0.20115030  0.08000230  0.63551737     0.10500
H17         H  0.16880317  0.04537469  0.60939353     0.09600
N18         N  0.25373754  0.04063517  0.63723444    -0.34300
N19         N  0.25955588  0.02530496  0.63387410    -0.26500
C20         C  0.27646428  0.02529932  0.63624976    -0.01700
C21         C  0.28135372  0.04132550  0.64139866     0.06900
C22         C  0.26665918  0.05066414  0.64184349     0.05000
H23         H  0.28464295  0.01462706  0.63380539     0.10100
H24         H  0.26551834  0.06401022  0.64458466     0.08900
N25         N  0.07249823  0.15560003  0.64566545    -0.25400
N26         N  0.07804259  0.14055849  0.65049267    -0.33300
C27         C  0.06962816  0.13570032  0.66443171     0.02900
C28         C  0.05825073  0.14818861  0.66866968     0.08900
C29         C  0.06039147  0.16067638  0.65657835    -0.04200
H30         H  0.07210757  0.12418224  0.67136307     0.09600
H31         H  0.05401081  0.17275115  0.65604117     0.10800
Cu32       Cu  0.09808566  0.12762674  0.63947650     0.44200
Cu33       Cu  0.08243542  0.16884108  0.62486543     0.42000
Cu34       Cu  0.12051319  0.14971266  0.60737609     0.43900
N35         N  0.12018007  0.11836000  0.62871484    -0.32800
N36         N  0.12863162  0.12674985  0.61701483    -0.27100
C37         C  0.14258751  0.11797536  0.61285614    -0.03200
C38         C  0.14289109  0.10339074  0.62241849     0.09000
C39         C  0.12854735  0.10399054  0.63235193     0.02800
H40         H  0.15184540  0.12197751  0.60363743     0.10500
H41         H  0.12458059  0.09479615  0.64165208     0.09600
N42         N  0.10931820  0.17133715  0.59772289    -0.34300
N43         N  0.09534037  0.17834265  0.60366212    -0.26500
C44         C  0.09101176  0.19130832  0.59341848    -0.01700
C45         C  0.10290680  0.19242380  0.58060295     0.06900
C46         C  0.11423849  0.17959226  0.58372891     0.05000
H47         H  0.07977495  0.19894652  0.59486436     0.10100
H48         H  0.12493095  0.17604092  0.57599514     0.08900
N49         N  0.22509719  0.01613831  0.88242173    -0.25400
N50         N  0.20956460  0.01076238  0.88551811    -0.33300
C51         C  0.19984156  0.02395046  0.88998947     0.02900
C52         C  0.20959604  0.03836899  0.88972920     0.08900
C53         C  0.22555591  0.03304627  0.88483725    -0.04200
H54         H  0.18644347  0.02317448  0.89256144     0.09600
H55         H  0.23650171  0.04092308  0.88263038     0.10800
Cu56       Cu  0.20124932  0.98616162  0.88196044     0.44200
Cu57       Cu  0.24445430  0.00002278  0.87389861     0.42000
Cu58       Cu  0.23008758  0.95727877  0.86295912     0.43900
N59         N  0.19466633  0.96154338  0.87584988    -0.32800
N60         N  0.20526239  0.95085941  0.86861301    -0.27100
C61         C  0.19737699  0.93595389  0.86628774    -0.03200
C62         C  0.18107366  0.93743562  0.87234281     0.09000
C63         C  0.17974514  0.95377412  0.87830674     0.02800
H64         H  0.20313074  0.92486229  0.86074850     0.10500
H65         H  0.16880020  0.95957567  0.88407443     0.09600
N66         N  0.25493879  0.96548220  0.86073718    -0.34300
N67         N  0.26042753  0.98072037  0.86497593    -0.26500
C68         C  0.27741232  0.98102062  0.86329097    -0.01700
C69         C  0.28270112  0.96529436  0.85766369     0.06900
C70         C  0.26816329  0.95581416  0.85622350     0.05000
H71         H  0.28534711  0.99167823  0.86649149     0.10100
H72         H  0.26730823  0.94259129  0.85285326     0.08900
N73         N  0.07065296  0.85190198  0.85487033    -0.25400
N74         N  0.07655872  0.86671650  0.84980479    -0.33300
C75         C  0.06797543  0.87177809  0.83605935     0.02900
C76         C  0.05610066  0.85965382  0.83218295     0.08900
C77         C  0.05812032  0.84715960  0.84429431    -0.04200
H78         H  0.07079203  0.88307229  0.82889133     0.09600
H79         H  0.05148088  0.83523090  0.84496311     0.10800
Cu80       Cu  0.09756485  0.87872432  0.85988475     0.44200
Cu81       Cu  0.08105021  0.83843912  0.87526230     0.42000
Cu82       Cu  0.12117337  0.85572287  0.89048750     0.43900
N83         N  0.12063846  0.88705462  0.86910946    -0.32800
N84         N  0.12955968  0.87836389  0.88022504    -0.27100
C85         C  0.14404777  0.88668168  0.88342087    -0.03200
C86         C  0.14418873  0.90124907  0.87381073     0.09000
C87         C  0.12920229  0.90113405  0.86488810     0.02800
H88         H  0.15372769  0.88242726  0.89207337     0.10500
H89         H  0.12488053  0.91049877  0.85592262     0.09600
N90         N  0.10932458  0.83475094  0.90089142    -0.34300
N91         N  0.09466267  0.82851440  0.89578821    -0.26500
C92         C  0.09012584  0.81593391  0.90640156    -0.01700
C93         C  0.10257714  0.81423627  0.91859052     0.06900
C94         C  0.11447758  0.82634077  0.91471704     0.05000
H95         H  0.07838230  0.80898810  0.90565653     0.10100
H96         H  0.12572945  0.82934500  0.92186527     0.08900
N97         N  0.11323472  0.77440043  0.98594511    -0.25400
N98         N  0.11026662  0.78985897  0.99163881    -0.33300
C99         C  0.10571204  0.79983065  0.97865966     0.02900
C100        C  0.10579584  0.79030472  0.96408065     0.08900
C101        C  0.11066860  0.77424403  0.96907477    -0.04200
H102        H  0.10319841  0.81323087  0.97968274     0.09600
H103        H  0.11274586  0.76341663  0.96099715     0.10800
Cu104      Cu  0.11406377  0.79773402  0.01639309     0.44200
Cu105      Cu  0.12164921  0.75455071  0.00144842     0.42000
Cu106      Cu  0.13309909  0.76791451  0.04415124     0.43900
N107        N  0.12051964  0.80356711  0.04115458    -0.32800
N108        N  0.12782799  0.79256783  0.05136897    -0.27100
C109        C  0.13037573  0.79989128  0.06650929    -0.03200
C110        C  0.12437983  0.81626297  0.06571091     0.09000
C111        C  0.11823040  0.81821932  0.04949847     0.02800
H112        H  0.13599463  0.79369362  0.07731278     0.10500
H113        H  0.11243662  0.82939795  0.04418287     0.09600
N114        N  0.13456551  0.74314923  0.03564875    -0.34300
N115        N  0.13013816  0.73797033  0.02037125    -0.26500
C116        C  0.13126327  0.72093210  0.01987904    -0.01700
C117        C  0.13671863  0.71531349  0.03554413     0.06900
C118        C  0.13863873  0.72969051  0.04516634     0.05000
H119        H  0.12780486  0.71321254  0.00914644     0.10100
H120        H  0.14204024  0.73029911  0.05838697     0.08900
N121        N  0.10039573  0.90453445  0.17327262    -0.25400
N122        N  0.09523268  0.88972248  0.16742243    -0.33300
C123        C  0.08131091  0.88491215  0.17588643     0.02900
C124        C  0.07743992  0.89718630  0.18762134     0.08900
C125        C  0.08973152  0.90950617  0.18564389    -0.04200
H126        H  0.07417110  0.87355702  0.17324846     0.09600
H127        H  0.09058381  0.92139669  0.19233130     0.10800
Cu128      Cu  0.10600548  0.87690534  0.14716355     0.44200
Cu129      Cu  0.12131779  0.91758885  0.16339698     0.42000
Cu130      Cu  0.14060102  0.89712592  0.12677335     0.43900
N131        N  0.11746520  0.86708419  0.12565563    -0.32800
N132        N  0.13029118  0.87464998  0.11810859    -0.27100
C133        C  0.13475249  0.86567455  0.10437343    -0.03200
C134        C  0.12419763  0.85183325  0.10325089     0.09000
C135        C  0.11337245  0.85307253  0.11689417     0.02800
H136        H  0.14479213  0.86909480  0.09575873     0.10500
H137        H  0.10316864  0.84456850  0.12010744     0.09600
N138        N  0.14933519  0.91946194  0.13734128    -0.34300
N139        N  0.14262639  0.92703071  0.15066603    -0.26500
C140        C  0.15215077  0.94067058  0.15452373    -0.01700
C141        C  0.16531057  0.94163209  0.14301300     0.06900
C142        C  0.16313770  0.92801685  0.13238838     0.05000
H143        H  0.14996357  0.94892440  0.16519292     0.10100
H144        H  0.17133831  0.92422999  0.12213279     0.08900
N145        N  0.51154975  0.88641499  0.27004711    -0.25400
N146        N  0.50619443  0.89015520  0.28545281    -0.33300
C147        C  0.51945119  0.89466748  0.29505360     0.02900
C148        C  0.53387635  0.89375733  0.28536281     0.08900
C149        C  0.52849734  0.88843774  0.26956550    -0.04200
H150        H  0.51870783  0.89767859  0.30836256     0.09600
H151        H  0.53635100  0.88566218  0.25873508     0.10800
Cu152      Cu  0.48154511  0.88731489  0.29399917     0.44200
Cu153      Cu  0.49543641  0.87758506  0.25085004     0.42000
Cu154      Cu  0.45293849  0.86724284  0.26593411     0.43900
N155        N  0.45695749  0.88129435  0.30090973    -0.32800
N156        N  0.44639864  0.87358095  0.29053564    -0.27100
C157        C  0.43154866  0.87119963  0.29848183    -0.03200
C158        C  0.43290164  0.87771599  0.31461585     0.09000
C159        C  0.44914072  0.88401372  0.31577502     0.02800
H160        H  0.42059574  0.86523211  0.29290188     0.10500
H161        H  0.45486402  0.89009157  0.32659297     0.09600
N162        N  0.46075216  0.86453620  0.24103731    -0.34300
N163        N  0.47590737  0.86859807  0.23523071    -0.26500
C164        C  0.47584955  0.86683167  0.21824814    -0.01700
C165        C  0.45996539  0.86133784  0.21331351     0.06900
C166        C  0.45078339  0.86005177  0.22804296     0.05000
H167        H  0.48634500  0.86995428  0.21007657     0.10100
H168        H  0.43753685  0.85689430  0.22917817     0.08900
N169        N  0.32270137  0.89842064  0.40035830    -0.25400
N170        N  0.32922973  0.90392515  0.38596821    -0.33300
C171        C  0.32082629  0.91780270  0.38093740     0.02900
C172        C  0.30841385  0.92130890  0.39262155     0.08900
C173        C  0.30992581  0.90883612  0.40483511    -0.04200
H174        H  0.32400945  0.92521536  0.36990532     0.09600
H175        H  0.30268894  0.90774319  0.41637226     0.10800
Cu176      Cu  0.35047197  0.89393813  0.37422988     0.44200
Cu177      Cu  0.33246005  0.87754445  0.41363263     0.42000
Cu178      Cu  0.37280388  0.86226431  0.39677775     0.43900
N179        N  0.37319836  0.88396839  0.36570407    -0.32800
N180        N  0.38165064  0.87238230  0.37424656    -0.27100
C181        C  0.39587273  0.86849727  0.36575985    -0.03200
C182        C  0.39633941  0.87814046  0.35121846     0.09000
C183        C  0.38181016  0.88781000  0.35154344     0.02800
H184        H  0.40510936  0.85928798  0.36983523     0.10500
H185        H  0.37778586  0.89694534  0.34221122     0.09600
N186        N  0.36062839  0.85179688  0.41753026    -0.34300
N187        N  0.34587249  0.85684993  0.42358732    -0.26500
C188        C  0.34121502  0.84617584  0.43608188    -0.01700
C189        C  0.35369464  0.83401379  0.43791208     0.06900
C190        C  0.36572247  0.83796514  0.42597089     0.05000
H191        H  0.32940335  0.84688919  0.44291107     0.10100
H192        H  0.37705236  0.83087813  0.42311153     0.08900
N193        N  0.23206448  0.98211048  0.13195314    -0.25400
N194        N  0.23757444  0.96673254  0.13556541    -0.33300
C195        C  0.22447163  0.95705489  0.14035398     0.02900
C196        C  0.20998793  0.96668845  0.13975171     0.08900
C197        C  0.21516752  0.98251665  0.13432434    -0.04200
H198        H  0.22534108  0.94373676  0.14332075     0.09600
H199        H  0.20720565  0.99330909  0.13169954     0.10800
Cu200      Cu  0.26221864  0.95849577  0.13216562     0.44200
Cu201      Cu  0.24796299  0.00131933  0.12289152     0.42000
Cu202      Cu  0.29108804  0.98729813  0.11307748     0.43900
N203        N  0.28684787  0.95189819  0.12612381    -0.32800
N204        N  0.29754213  0.96248028  0.11887915    -0.27100
C205        C  0.31245521  0.95458725  0.11664227    -0.03200
C206        C  0.31097295  0.93829460  0.12276924     0.09000
C207        C  0.29461665  0.93698416  0.12867129     0.02800
H208        H  0.32355772  0.96033219  0.11112485     0.10500
H209        H  0.28880799  0.92605939  0.13447862     0.09600
N210        N  0.28260164  0.01203872  0.11035887    -0.34300
N211        N  0.26718107  0.01735597  0.11409222    -0.26500
C212        C  0.26665317  0.03431264  0.11217533    -0.01700
C213        C  0.28243082  0.03977450  0.10693233     0.06900
C214        C  0.29217871  0.02536953  0.10595751     0.05000
H215        H  0.25580705  0.04212203  0.11502087     0.10100
H216        H  0.30550381  0.02469414  0.10300835     0.08900
N217        N  0.39628326  0.82770370  0.10498221    -0.25400
N218        N  0.38158245  0.83377817  0.09981098    -0.33300
C219        C  0.37646742  0.82515028  0.08610254     0.02900
C220        C  0.38843392  0.81306216  0.08237366     0.08900
C221        C  0.40089034  0.81501194  0.09452842    -0.04200
H222        H  0.36522709  0.82803515  0.07888891     0.09600
H223        H  0.41270150  0.80818914  0.09532360     0.10800
Cu224      Cu  0.36972707  0.85490313  0.10989738     0.44200
Cu225      Cu  0.40978500  0.83803091  0.12538478     0.42000
Cu226      Cu  0.39214821  0.87762424  0.14170788     0.43900
N227        N  0.36128281  0.87777234  0.11960255    -0.32800
N228        N  0.36969277  0.88632885  0.13121707    -0.27100
C229        C  0.36134445  0.90077382  0.13459289    -0.03200
C230        C  0.34705391  0.90126786  0.12458359     0.09000
C231        C  0.34736964  0.88652997  0.11524260     0.02800
H232        H  0.36541491  0.91021052  0.14360214     0.10500
H233        H  0.33826100  0.88251870  0.10588117     0.09600
N234        N  0.41348640  0.86586260  0.15154773    -0.34300
N235        N  0.41989710  0.85144842  0.14595197    -0.26500
C236        C  0.43289318  0.84698837  0.15607396    -0.01700
C237        C  0.43469291  0.85921977  0.16847331     0.06900
C238        C  0.42219873  0.87091912  0.16523233     0.05000
H239        H  0.44009887  0.83544122  0.15483620     0.10100
H240        H  0.41920744  0.88198822  0.17267565     0.08900
N241        N  0.86312729  0.26708294  0.97805876    -0.25400
N242        N  0.85979292  0.26144559  0.96266280    -0.33300
C243        C  0.85552634  0.27455062  0.95271813     0.02900
C244        C  0.85617455  0.28915790  0.96219494     0.08900
C245        C  0.86108474  0.28403923  0.97820382    -0.04200
H246        H  0.85277390  0.27356945  0.93936967     0.09600
H247        H  0.86350076  0.29207068  0.98899296     0.10800
Cu248      Cu  0.86262935  0.23649982  0.95487359     0.44200
Cu249      Cu  0.87125067  0.25129966  0.99781611     0.42000
Cu250      Cu  0.88035583  0.20783741  0.98476205     0.43900
N251        N  0.86824433  0.21150868  0.94898602    -0.32800
N252        N  0.87502028  0.20094900  0.96000440    -0.27100
C253        C  0.87739615  0.18585384  0.95250634    -0.03200
C254        C  0.87185064  0.18703705  0.93600226     0.09000
C255        C  0.86613556  0.20343381  0.93415714     0.02800
H256        H  0.88274619  0.17486540  0.95862334     0.10500
H257        H  0.86089545  0.20910284  0.92288383     0.09600
N258        N  0.88283876  0.21661762  0.00937454    -0.34300
N259        N  0.87932889  0.23219186  0.01440377    -0.26500
C260        C  0.88113252  0.23295430  0.03136286    -0.01700
C261        C  0.88607131  0.21715771  0.03709958     0.06900
C262        C  0.88698457  0.20717187  0.02286698     0.05000
H263        H  0.87852467  0.24400504  0.03897104     0.10100
H264        H  0.88981890  0.19380485  0.02240178     0.08900
N265        N  0.85122924  0.07861792  0.84806741    -0.25400
N266        N  0.84617347  0.08427757  0.86298301    -0.33300
C267        C  0.83231143  0.07572009  0.86780785     0.02900
C268        C  0.82835266  0.06412872  0.85542775     0.08900
C269        C  0.84054045  0.06628521  0.84303838    -0.04200
H270        H  0.82518646  0.07830156  0.87917938     0.09600
H271        H  0.84123659  0.05982277  0.83101867     0.10800
Cu272      Cu  0.85664759  0.10475528  0.87568486     0.44200
Cu273      Cu  0.87187173  0.08889212  0.83484139     0.42000
Cu274      Cu  0.88879110  0.12741649  0.85389040     0.43900
N275        N  0.86691387  0.12711661  0.88489679    -0.32800
N276        N  0.87868235  0.13563559  0.87666948    -0.27100
C277        C  0.88248381  0.14973144  0.88541106    -0.03200
C278        C  0.87260520  0.15005652  0.89979099     0.09000
C279        C  0.86287269  0.13557116  0.89910453     0.02800
H280        H  0.89167881  0.15906773  0.88152941     0.10500
H281        H  0.85345100  0.13154920  0.90814655     0.09600
N282        N  0.89847435  0.11635991  0.83214524    -0.34300
N283        N  0.89271024  0.10227434  0.82518562    -0.26500
C284        C  0.90284480  0.09816877  0.81206888    -0.01700
C285        C  0.91541451  0.11030968  0.81078308     0.06900
C286        C  0.91225575  0.12156399  0.82369071     0.05000
H287        H  0.90150359  0.08691083  0.80443530     0.10100
H288        H  0.91983292  0.13240460  0.82714566     0.08900
N289        N  0.01867575  0.13880280  0.73640196    -0.25400
N290        N  0.03399055  0.14250491  0.74203545    -0.33300
C291        C  0.04383230  0.14702226  0.72894390     0.02900
C292        C  0.03438904  0.14613856  0.71434221     0.08900
C293        C  0.01849827  0.14084298  0.71945455    -0.04200
H294        H  0.05714475  0.14994901  0.72991124     0.09600
H295        H  0.00781741  0.13804162  0.71140905     0.10800
Cu296      Cu  0.04206863  0.13935390  0.76682549     0.44200
Cu297      Cu  0.99915279  0.12988775  0.75208668     0.42000
Cu298      Cu  0.01319322  0.11883740  0.79459197     0.43900
N299        N  0.04838541  0.13267838  0.79142466    -0.32800
N300        N  0.03775020  0.12478734  0.80159287    -0.27100
C301        C  0.04536878  0.12200797  0.81653907    -0.03200
C302        C  0.06155139  0.12846255  0.81567961     0.09000
C303        C  0.06309611  0.13512428  0.79961686     0.02800
H304        H  0.03951607  0.11584892  0.82724124     0.10500
H305        H  0.07406034  0.14128705  0.79427540     0.09600
N306        N  0.98841075  0.11651623  0.78634416    -0.34300
N307        N  0.98297462  0.12079446  0.77111583    -0.26500
C308        C  0.96599334  0.11904301  0.77074181    -0.01700
C309        C  0.96067310  0.11333377  0.78642869     0.06900
C310        C  0.97517804  0.11192149  0.79594613     0.05000
H311        H  0.95808621  0.12224264  0.76007024     0.10100
H312        H  0.97600362  0.10850195  0.80915075     0.08900
N313        N  0.17098934  0.10628141  0.90153794    -0.25400
N314        N  0.16437252  0.10096588  0.88712432    -0.33300
C315        C  0.17288720  0.08728131  0.88174732     0.02900
C316        C  0.18547503  0.08372541  0.89323758     0.08900
C317        C  0.18393444  0.09595198  0.90568990    -0.04200
H318        H  0.16966703  0.08002240  0.87062346     0.09600
H319        H  0.19126409  0.09691723  0.91717856     0.10800
Cu320      Cu  0.14292592  0.11107036  0.87589346     0.44200
Cu321      Cu  0.16110022  0.12677974  0.91525108     0.42000
Cu322      Cu  0.12047468  0.14234477  0.89918888     0.43900
N323        N  0.12024301  0.12131807  0.86762473    -0.32800
N324        N  0.11174864  0.13272794  0.87637053    -0.27100
C325        C  0.09764477  0.13689691  0.86781104    -0.03200
C326        C  0.09732040  0.12762145  0.85302047     0.09000
C327        C  0.11178725  0.11787888  0.85327888     0.02800
H328        H  0.08841992  0.14607533  0.87198498     0.10500
H329        H  0.11590447  0.10899335  0.84374663     0.09600
N330        N  0.13293584  0.15241724  0.91998914    -0.34300
N331        N  0.14778930  0.14726163  0.92571279    -0.26500
C332        C  0.15275637  0.15782558  0.93817353    -0.01700
C333        C  0.14038434  0.17002961  0.94034689     0.06900
C334        C  0.12808601  0.16621615  0.92863354     0.05000
H335        H  0.16475298  0.15707610  0.94466670     0.10100
H336        H  0.11679795  0.17344777  0.92598046     0.08900
N337        N  0.01716494  0.63663854  0.26428348    -0.25400
N338        N  0.03253696  0.64056214  0.25897754    -0.33300
C339        C  0.04214362  0.64476467  0.27234347     0.02900
C340        C  0.03244835  0.64345061  0.28675283     0.08900
C341        C  0.01668446  0.63822185  0.28126087    -0.04200
H342        H  0.05544798  0.64780936  0.27167439     0.09600
H343        H  0.00587772  0.63517985  0.28904839     0.10800
Cu344      Cu  0.04088150  0.63819475  0.23417791     0.44200
Cu345      Cu  0.99798705  0.62808463  0.24814060     0.42000
Cu346      Cu  0.01249058  0.61810728  0.20548325     0.43900
N347        N  0.04756289  0.63211516  0.20950913    -0.32800
N348        N  0.03715559  0.62435867  0.19900259    -0.27100
C349        C  0.04511146  0.62180751  0.18418172    -0.03200
C350        C  0.06127304  0.62826628  0.18548475     0.09000
C351        C  0.06244038  0.63470567  0.20166849     0.02800
H352        H  0.03952692  0.61573721  0.17328726     0.10500
H353        H  0.07329633  0.64074457  0.20736001     0.09600
N354        N  0.98761606  0.61555331  0.21349575    -0.34300
N355        N  0.98208698  0.61946115  0.22879095    -0.26500
C356        C  0.96511142  0.61779688  0.22904040    -0.01700
C357        C  0.95986136  0.61252959  0.21320153     0.06900
C358        C  0.97440816  0.61127490  0.20370980     0.05000
H359        H  0.95716204  0.62081261  0.23973630     0.10100
H360        H  0.97527616  0.60823320  0.19041566     0.08900
N361        N  0.14681146  0.64794099  0.07507212    -0.25400
N362        N  0.13225134  0.65328321  0.08133674    -0.33300
C363        C  0.12691170  0.66670883  0.07239339     0.02900
C364        C  0.13857822  0.67003203  0.05989462     0.08900
C365        C  0.15109269  0.65796592  0.06194287    -0.04200
H366        H  0.11573216  0.67400999  0.07530509     0.09600
H367        H  0.16274894  0.65696764  0.05488557     0.10800
Cu368      Cu  0.12083208  0.64365124  0.10294026     0.44200
Cu369      Cu  0.16067896  0.62799419  0.08569237     0.42000
Cu370      Cu  0.14395717  0.61255887  0.12599091     0.43900
N371        N  0.11248204  0.63381269  0.12581377    -0.32800
N372        N  0.12114431  0.62245776  0.13446933    -0.27100
C373        C  0.11264870  0.61869120  0.14872577    -0.03200
C374        C  0.09798392  0.62816036  0.14899950     0.09000
C375        C  0.09824774  0.63760558  0.13432501     0.02800
H376        H  0.11682295  0.60970834  0.15813967     0.10500
H377        H  0.08882920  0.64657907  0.13014210     0.09600
N378        N  0.16534487  0.60282846  0.11422850    -0.34300
N379        N  0.17137798  0.60806745  0.09952950    -0.26500
C380        C  0.18435533  0.59793590  0.09504951    -0.01700
C381        C  0.18655359  0.58590978  0.10757240     0.06900
C382        C  0.17429964  0.58936599  0.11945760     0.05000
H383        H  0.19118825  0.59882584  0.08325124     0.10100
H384        H  0.17153452  0.58211511  0.13070739     0.08900
N385        N  0.61203137  0.23132680  0.98614235    -0.25400
N386        N  0.60861035  0.21599131  0.99191483    -0.33300
C387        C  0.60412915  0.20597473  0.97894434     0.02900
C388        C  0.60472650  0.21532236  0.96426715     0.08900
C389        C  0.60982622  0.23134488  0.96921095    -0.04200
H390        H  0.60138933  0.19262491  0.98004582     0.09600
H391        H  0.61236275  0.24201815  0.96106132     0.10800
Cu392      Cu  0.61204384  0.20815128  0.01671729     0.44200
Cu393      Cu  0.62082948  0.25106477  0.00166373     0.42000
Cu394      Cu  0.63352812  0.23689063  0.04373913     0.43900
N395        N  0.61913055  0.20192369  0.04119133    -0.32800
N396        N  0.62744950  0.21248257  0.05109184    -0.27100
C397        C  0.63040871  0.20492416  0.06603701    -0.03200
C398        C  0.62362232  0.18885744  0.06543007     0.09000
C399        C  0.61657614  0.18732546  0.04954395     0.02800
H400        H  0.63688189  0.21074801  0.07656810     0.10500
H401        H  0.61006854  0.17644721  0.04443226     0.09600
N402        N  0.63518996  0.26173330  0.03556056    -0.34300
N403        N  0.63020159  0.26725357  0.02057886    -0.26500
C404        C  0.63142837  0.28429622  0.02041827    -0.01700
C405        C  0.63754414  0.28955297  0.03597727     0.06900
C406        C  0.63974488  0.27495580  0.04519453     0.05000
H407        H  0.62754882  0.29227140  0.01002344     0.10100
H408        H  0.64357619  0.27404280  0.05827928     0.08900
N409        N  0.60025854  0.10063434  0.17282188    -0.25400
N410        N  0.59532375  0.11559492  0.16716233    -0.33300
C411        C  0.58133585  0.12040631  0.17552018     0.02900
C412        C  0.57718270  0.10796641  0.18698240     0.08900
C413        C  0.58937211  0.09555828  0.18495090    -0.04200
H414        H  0.57434282  0.13187300  0.17297774     0.09600
H415        H  0.59001882  0.08355166  0.19144894     0.10800
Cu416      Cu  0.60637095  0.12847961  0.14711844     0.44200
Cu417      Cu  0.62122575  0.08756213  0.16304892     0.42000
Cu418      Cu  0.63891630  0.10664706  0.12499315     0.43900
N419        N  0.61726007  0.13778516  0.12511465    -0.32800
N420        N  0.62911489  0.12950465  0.11677033    -0.27100
C421        C  0.63332209  0.13832574  0.10285737    -0.03200
C422        C  0.62362894  0.15282112  0.10247849     0.09000
C423        C  0.61357084  0.15212361  0.11672437     0.02800
H424        H  0.64266651  0.13441937  0.09368489     0.10500
H425        H  0.60415586  0.16123350  0.12061350     0.09600
N426        N  0.64863952  0.08517228  0.13641885    -0.34300
N427        N  0.64261532  0.07819784  0.15037751    -0.26500
C428        C  0.65288476  0.06530993  0.15486086    -0.01700
C429        C  0.66580999  0.06421120  0.14309099     0.06900
C430        C  0.66272242  0.07697007  0.13166570     0.05000
H431        H  0.65135519  0.05769149  0.16610047     0.10100
H432        H  0.67051265  0.08048420  0.12100169     0.08900
N433        N  0.72581532  0.98891535  0.88211453    -0.25400
N434        N  0.71061701  0.99442198  0.88639924    -0.33300
C435        C  0.70101798  0.98125648  0.89118751     0.02900
C436        C  0.71050443  0.96671838  0.88988714     0.08900
C437        C  0.72617200  0.97194412  0.88404153    -0.04200
H438        H  0.68782190  0.98213937  0.89462314     0.09600
H439        H  0.73680590  0.96397638  0.88085496     0.10800
Cu440      Cu  0.70236211  0.01915678  0.88372773     0.44200
Cu441      Cu  0.74478956  0.00502772  0.87283379     0.42000
Cu442      Cu  0.72996203  0.04789055  0.86281516     0.43900
N443        N  0.69520754  0.04357554  0.87743347    -0.32800
N444        N  0.70529113  0.05415524  0.86935847    -0.27100
C445        C  0.69705419  0.06884436  0.86687522    -0.03200
C446        C  0.68106241  0.06734415  0.87372007     0.09000
C447        C  0.68028202  0.05120366  0.88030345     0.02800
H448        H  0.70235228  0.07980250  0.86065815     0.10500
H449        H  0.66968100  0.04541611  0.88669474     0.09600
N450        N  0.75486493  0.03988613  0.86019513    -0.34300
N451        N  0.76048144  0.02459488  0.86405957    -0.26500
C452        C  0.77745852  0.02445036  0.86232232    -0.01700
C453        C  0.78262571  0.04033514  0.85706059     0.06900
C454        C  0.76801763  0.04975072  0.85588415     0.05000
H455        H  0.78547577  0.01378936  0.86529267     0.10100
H456        H  0.76707154  0.06305172  0.85286661     0.08900
N457        N  0.59435215  0.17641277  0.89613169    -0.25400
N458        N  0.60872032  0.16986832  0.90166814    -0.33300
C459        C  0.61369419  0.17824682  0.91558679     0.02900
C460        C  0.60199213  0.19066606  0.91907021     0.08900
C461        C  0.58983703  0.18917432  0.90654852    -0.04200
H462        H  0.62472477  0.17508156  0.92300389     0.09600
H463        H  0.57832548  0.19644422  0.90539919     0.10800
Cu464      Cu  0.62052965  0.14873105  0.89148873     0.44200
Cu465      Cu  0.58116316  0.16673886  0.87517009     0.42000
Cu466      Cu  0.59812657  0.12666612  0.85936742     0.43900
N467        N  0.62918679  0.12621430  0.88111094    -0.32800
N468        N  0.62073163  0.11788838  0.86936704    -0.27100
C469        C  0.62936379  0.10382352  0.86521367    -0.03200
C470        C  0.64390569  0.10332659  0.87484429     0.09000
C471        C  0.64343105  0.11767030  0.88478612     0.02800
H472        H  0.62539744  0.09472929  0.85581424     0.10500
H473        H  0.65273707  0.12163302  0.89397195     0.09600
N474        N  0.57724878  0.13882136  0.84913906    -0.34300
N475        N  0.57116491  0.15350458  0.85438625    -0.26500
C476        C  0.55867126  0.15828609  0.84377680    -0.01700
C477        C  0.55686387  0.14596523  0.83144829     0.06900
C478        C  0.56882026  0.13389365  0.83524246     0.05000
H479        H  0.55187422  0.17011439  0.84460783     0.10100
H480        H  0.57174977  0.12269745  0.82796629     0.08900
N481        N  0.48339498  0.11925577  0.72752724    -0.25400
N482        N  0.48899566  0.11552766  0.71221173    -0.33300
C483        C  0.47587505  0.11101289  0.70240435     0.02900
C484        C  0.46129132  0.11191712  0.71188870     0.08900
C485        C  0.46644752  0.11723314  0.72775791    -0.04200
H486        H  0.47681425  0.10802557  0.68910277     0.09600
H487        H  0.45843776  0.12001768  0.73847105     0.10800
Cu488      Cu  0.51383795  0.11859138  0.70422621     0.44200
Cu489      Cu  0.49921284  0.12809116  0.74693277     0.42000
Cu490      Cu  0.54184889  0.13933873  0.73284995     0.43900
N491        N  0.53840177  0.12527185  0.69773106    -0.32800
N492        N  0.54865625  0.13329285  0.70819117    -0.27100
C493        C  0.56351470  0.13604439  0.70035993    -0.03200
C494        C  0.56249614  0.12942934  0.68423256     0.09000
C495        C  0.54644108  0.12270236  0.68295737     0.02800
H496        H  0.57427563  0.14226475  0.70603683     0.10500
H497        H  0.54099850  0.11639768  0.67212424     0.09600
N498        N  0.53354564  0.14137130  0.75770979    -0.34300
N499        N  0.51831048  0.13700718  0.76307696    -0.26500
C500        C  0.51790104  0.13849325  0.78007463    -0.01700
C501        C  0.53355810  0.14412411  0.78551554     0.06900
C502        C  0.54311625  0.14576820  0.77104539     0.05000
H503        H  0.50721977  0.13514599  0.78790974     0.10100
H504        H  0.55632486  0.14919102  0.77030860     0.08900
N505        N  0.64831134  0.14830170  0.57382606    -0.25400
N506        N  0.63382026  0.15374124  0.58017171    -0.33300
C507        C  0.62861619  0.16733371  0.57141252     0.02900
C508        C  0.64029677  0.17070964  0.55895355     0.08900
C509        C  0.65268611  0.15846489  0.56081879    -0.04200
H510        H  0.61752357  0.17471911  0.57444288     0.09600
H511        H  0.66431693  0.15743047  0.55372502     0.10800
Cu512      Cu  0.62231159  0.14413829  0.60172133     0.44200
Cu513      Cu  0.66191332  0.12799692  0.58424898     0.42000
Cu514      Cu  0.64495999  0.11274650  0.62461679     0.43900
N515        N  0.61383518  0.13446613  0.62460463    -0.32800
N516        N  0.62232968  0.12295865  0.63321915    -0.27100
C517        C  0.61380315  0.11930665  0.64748847    -0.03200
C518        C  0.59929868  0.12902523  0.64781784     0.09000
C519        C  0.59968830  0.13848840  0.63315613     0.02800
H520        H  0.61784217  0.11022832  0.65686964     0.10500
H521        H  0.59040747  0.14761774  0.62900242     0.09600
N522        N  0.66611243  0.10263769  0.61274627    -0.34300
N523        N  0.67221607  0.10774698  0.59802679    -0.26500
C524        C  0.68495120  0.09730660  0.59351825    -0.01700
C525        C  0.68690648  0.08522285  0.60604429     0.06900
C526        C  0.67477646  0.08898102  0.61795808     0.05000
H527        H  0.69179422  0.09805207  0.58171596     0.10100
H528        H  0.67189277  0.08181740  0.62923395     0.08900
N529        N  0.73318255  0.02451051  0.13249607    -0.25400
N530        N  0.73868605  0.04003946  0.13540636    -0.33300
C531        C  0.72561043  0.04986659  0.13997705     0.02900
C532        C  0.71115415  0.04016086  0.13998052     0.08900
C533        C  0.71632454  0.02414403  0.13512684    -0.04200
H534        H  0.72648254  0.06328461  0.14245459     0.09600
H535        H  0.70837570  0.01321155  0.13310460     0.10800
Cu536      Cu  0.76333719  0.04808223  0.13158186     0.44200
Cu537      Cu  0.74903447  0.00498343  0.12404350     0.42000
Cu538      Cu  0.79221122  0.01847015  0.11367375     0.43900
N539        N  0.78807460  0.05428568  0.12555811    -0.32800
N540        N  0.79876695  0.04339876  0.11877597    -0.27100
C541        C  0.81377473  0.05109121  0.11649041    -0.03200
C542        C  0.81235693  0.06757013  0.12210053     0.09000
C543        C  0.79594398  0.06920262  0.12775314     0.02800
H544        H  0.82489930  0.04508294  0.11130838     0.10500
H545        H  0.79017035  0.08034120  0.13317691     0.09600
N546        N  0.78353460  0.99375299  0.11154535    -0.34300
N547        N  0.76809983  0.98863167  0.11549049    -0.26500
C548        C  0.76740405  0.97165575  0.11382868    -0.01700
C549        C  0.78308426  0.96598091  0.10852985     0.06900
C550        C  0.79295555  0.98027629  0.10725816     0.05000
H551        H  0.75649629  0.96398986  0.11682690     0.10100
H552        H  0.80624659  0.98079479  0.10412810     0.08900
N553        N  0.89684614  0.17879553  0.10506247    -0.25400
N554        N  0.88209303  0.17275310  0.10001063    -0.33300
C555        C  0.87672564  0.18161041  0.08655034     0.02900
C556        C  0.88858482  0.19381999  0.08286569     0.08900
C557        C  0.90123967  0.19169592  0.09477973    -0.04200
H558        H  0.86543300  0.17875131  0.07940685     0.09600
H559        H  0.91307195  0.19849561  0.09546562     0.10800
Cu560      Cu  0.87066223  0.15125335  0.10974897     0.44200
Cu561      Cu  0.91077216  0.16802485  0.12492461     0.42000
Cu562      Cu  0.89463824  0.12715577  0.13945178     0.43900
N563        N  0.86280383  0.12791473  0.11876420    -0.32800
N564        N  0.87180486  0.11882650  0.12949869    -0.27100
C565        C  0.86360712  0.10424595  0.13264714    -0.03200
C566        C  0.84879974  0.10422888  0.12341173     0.09000
C567        C  0.84865154  0.11937797  0.11476176     0.02800
H568        H  0.86808686  0.09443477  0.14103945     0.10500
H569        H  0.83903605  0.12384728  0.10614531     0.09600
N570        N  0.91566791  0.13912762  0.14967790    -0.34300
N571        N  0.92145264  0.15406167  0.14481427    -0.26500
C572        C  0.93413278  0.15865069  0.15527150    -0.01700
C573        C  0.93639674  0.14595643  0.16711539     0.06900
C574        C  0.92449271  0.13385083  0.16320401     0.05000
H575        H  0.94071945  0.17061437  0.15471240     0.10100
H576        H  0.92185865  0.12239836  0.17018777     0.08900
N577        N  0.01000655  0.88714513  0.22745563    -0.25400
N578        N  0.00433554  0.89062706  0.21210352    -0.33300
C579        C  0.01737683  0.89525022  0.20224195     0.02900
C580        C  0.03197405  0.89468640  0.21172153     0.08900
C581        C  0.02691779  0.88945291  0.22764750    -0.04200
H582        H  0.01638202  0.89809735  0.18891416     0.09600
H583        H  0.03498146  0.88690025  0.23837641     0.10800
Cu584      Cu  0.97950467  0.88736223  0.20414024     0.44200
Cu585      Cu  0.99444640  0.87819626  0.24703868     0.42000
Cu586      Cu  0.95148052  0.86809573  0.23365114     0.43900
N587        N  0.95461620  0.88134594  0.19824195    -0.32800
N588        N  0.94431425  0.87404976  0.20916896    -0.27100
C589        C  0.92921238  0.87154262  0.20177364    -0.03200
C590        C  0.93010855  0.87753321  0.18542185     0.09000
C591        C  0.94635190  0.88365546  0.18354837     0.02800
H592        H  0.91842142  0.86576917  0.20785225     0.10500
H593        H  0.95178979  0.88928907  0.17234995     0.09600
N594        N  0.96025464  0.86497768  0.25813761    -0.34300
N595        N  0.97565573  0.86890003  0.26334744    -0.26500
C596        C  0.97639459  0.86663127  0.28025155    -0.01700
C597        C  0.96076764  0.86094042  0.28574265     0.06900
C598        C  0.95090197  0.86008820  0.27143486     0.05000
H599        H  0.98726813  0.86949829  0.28801029     0.10100
H600        H  0.93763164  0.85688528  0.27081677     0.08900
N601        N  0.82037250  0.89707146  0.09937381    -0.25400
N602        N  0.82600475  0.90199475  0.11433754    -0.33300
C603        C  0.81741623  0.91579363  0.11928524     0.02900
C604        C  0.80583407  0.91982512  0.10692898     0.08900
C605        C  0.80803084  0.90776800  0.09442817    -0.04200
H606        H  0.82002911  0.92287943  0.13067649     0.09600
H607        H  0.80165243  0.90721638  0.08235891     0.10800
Cu608      Cu  0.84661272  0.89153494  0.12677645     0.44200
Cu609      Cu  0.83080095  0.87673728  0.08589884     0.42000
Cu610      Cu  0.86958417  0.85989528  0.10426779     0.43900
N611        N  0.86922970  0.88149447  0.13551574    -0.32800
N612        N  0.87784105  0.86995874  0.12704868    -0.27100
C613        C  0.89216296  0.86640911  0.13550100    -0.03200
C614        C  0.89253841  0.87621258  0.14992813     0.09000
C615        C  0.87784916  0.88563086  0.14958842     0.02800
H616        H  0.90164287  0.85747934  0.13136086     0.10500
H617        H  0.87382455  0.89495042  0.15873903     0.09600
N618        N  0.85839733  0.85040630  0.08250873    -0.34300
N619        N  0.84420994  0.85619392  0.07580529    -0.26500
C620        C  0.83998813  0.84624759  0.06259310    -0.01700
C621        C  0.85215702  0.83376623  0.06096753     0.06900
C622        C  0.86355870  0.83677281  0.07378027     0.05000
H623        H  0.82862827  0.84764425  0.05513397     0.10100
H624        H  0.87446411  0.82918543  0.07698426     0.08900
N625        N  0.88215841  0.77372120  0.48574365    -0.25400
N626        N  0.88578747  0.78912603  0.49120125    -0.33300
C627        C  0.89013753  0.79886690  0.47798257     0.02900
C628        C  0.88923029  0.78925113  0.46349604     0.08900
C629        C  0.88409370  0.77337159  0.46879285    -0.04200
H630        H  0.89299155  0.81221365  0.47879244     0.09600
H631        H  0.88132259  0.76257970  0.46087707     0.10800
Cu632      Cu  0.88299099  0.79740324  0.51595961     0.44200
Cu633      Cu  0.87346384  0.75429149  0.50160609     0.42000
Cu634      Cu  0.86482198  0.76803786  0.54475354     0.43900
N635        N  0.87737018  0.80363113  0.54083129    -0.32800
N636        N  0.87052156  0.79272747  0.55145959    -0.27100
C637        C  0.86807811  0.80036366  0.56645396    -0.03200
C638        C  0.87363351  0.81684934  0.56513207     0.09000
C639        C  0.87944015  0.81855074  0.54875948     0.02800
H640        H  0.86258278  0.79437662  0.57743939     0.10500
H641        H  0.88465307  0.82979367  0.54299414     0.09600
N642        N  0.86131542  0.74348854  0.53625324    -0.34300
N643        N  0.86464106  0.73816448  0.52075059    -0.26500
C644        C  0.86220366  0.72126959  0.52017233    -0.01700
C645        C  0.85704647  0.71590062  0.53602301     0.06900
C646        C  0.85665911  0.73027096  0.54584111     0.05000
H647        H  0.86461044  0.71343146  0.50924014     0.10100
H648        H  0.85392095  0.73098378  0.55921041     0.08900
N649        N  0.85051389  0.92642080  0.65099487    -0.25400
N650        N  0.84498954  0.91979992  0.63665500    -0.33300
C651        C  0.83118211  0.92826415  0.63153523     0.02900
C652        C  0.82776320  0.94081571  0.64311229     0.08900
C653        C  0.84019809  0.93931483  0.65534828    -0.04200
H654        H  0.82377733  0.92505704  0.62050708     0.09600
H655        H  0.84134107  0.94665630  0.66681665     0.10800
Cu656      Cu  0.85499377  0.89845640  0.62509240     0.44200
Cu657      Cu  0.87128521  0.91668476  0.66440602     0.42000
Cu658      Cu  0.88644937  0.87615270  0.64818103     0.43900
N659        N  0.86533852  0.87583729  0.61670273    -0.32800
N660        N  0.87681045  0.86742052  0.62543187    -0.27100
C661        C  0.88111364  0.85336358  0.61687044    -0.03200
C662        C  0.87187113  0.85297134  0.60208337     0.09000
C663        C  0.86199127  0.86735868  0.60233956     0.02800
H664        H  0.89038452  0.84422764  0.62103381     0.10500
H665        H  0.85309728  0.87141212  0.59279327     0.09600
N666        N  0.89681691  0.88844764  0.66887497    -0.34300
N667        N  0.89183321  0.90332966  0.67468411    -0.26500
C668        C  0.90251112  0.90814281  0.68710869    -0.01700
C669        C  0.91459831  0.89562335  0.68915258     0.06900
C670        C  0.91060373  0.88341604  0.67740683     0.05000
H671        H  0.90188052  0.92009648  0.69370708     0.10100
H672        H  0.91767023  0.87203351  0.67469190     0.08900
N673        N  0.61468258  0.77479752  0.51288181    -0.25400
N674        N  0.61110153  0.79026030  0.50757920    -0.33300
C675        C  0.60652220  0.79981518  0.52086243     0.02900
C676        C  0.60722080  0.79000228  0.53523625     0.08900
C677        C  0.61249334  0.77421020  0.52979834    -0.04200
H678        H  0.60354652  0.81314147  0.52017413     0.09600
H679        H  0.61506760  0.76328426  0.53759361     0.10800
Cu680      Cu  0.61412766  0.79868223  0.48289174     0.44200
Cu681      Cu  0.62334854  0.75560779  0.49671875     0.42000
Cu682      Cu  0.63315140  0.76991064  0.45382440     0.43900
N683        N  0.62017011  0.80533599  0.45822316    -0.32800
N684        N  0.62745198  0.79477247  0.44753144    -0.27100
C685        C  0.62988609  0.80272251  0.43268358    -0.03200
C686        C  0.62385038  0.81904014  0.43417917     0.09000
C687        C  0.61778177  0.82030430  0.45048947     0.02800
H688        H  0.63552029  0.79700891  0.42162296     0.10500
H689        H  0.61203657  0.83125612  0.45630828     0.09600
N690        N  0.63565889  0.74505671  0.46197182    -0.34300
N691        N  0.63189172  0.73961220  0.47733696    -0.26500
C692        C  0.63368896  0.72263662  0.47768686    -0.01700
C693        C  0.63889467  0.71730282  0.46184862     0.06900
C694        C  0.63996608  0.73180009  0.45224949     0.05000
H695        H  0.63084100  0.71473783  0.48846777     0.10100
H696        H  0.64296230  0.73260213  0.43894122     0.08900
N697        N  0.64245798  0.92896287  0.34771932    -0.25400
N698        N  0.64772294  0.92297698  0.36242622    -0.33300
C699        C  0.66137698  0.93172769  0.36746693     0.02900
C700        C  0.66497783  0.94379877  0.35544896     0.08900
C701        C  0.65280381  0.94171567  0.34303378    -0.04200
H702        H  0.66865670  0.92892654  0.37868618     0.09600
H703        H  0.65193523  0.94847719  0.33119188     0.10800
Cu704      Cu  0.63786742  0.90183001  0.37445214     0.44200
Cu705      Cu  0.62209395  0.91844834  0.33430191     0.42000
Cu706      Cu  0.60585660  0.87908435  0.35251949     0.43900
N707        N  0.62812014  0.87910059  0.38324829    -0.32800
N708        N  0.61636857  0.87056285  0.37501648    -0.27100
C709        C  0.61284681  0.85628769  0.38358610    -0.03200
C710        C  0.62290282  0.85587247  0.39784296     0.09000
C711        C  0.63243402  0.87048835  0.39727245     0.02800
H712        H  0.60367781  0.84692547  0.37970559     0.10500
H713        H  0.64184930  0.87453693  0.40630871     0.09600
N714        N  0.59603531  0.89048861  0.33100066    -0.34300
N715        N  0.60158192  0.90481697  0.32436106    -0.26500
C716        C  0.59144384  0.90902667  0.31129061    -0.01700
C717        C  0.57909731  0.89671022  0.30968825     0.06900
C718        C  0.58237946  0.88523678  0.32237126     0.05000
H719        H  0.59262048  0.92047225  0.30391442     0.10100
H720        H  0.57496492  0.87420353  0.32555949     0.08900
N721        N  0.76966100  0.01569641  0.38344372    -0.25400
N722        N  0.78506889  0.00990574  0.38640183    -0.33300
C723        C  0.79504928  0.02276588  0.39126441     0.02900
C724        C  0.78558229  0.03738446  0.39140303     0.08900
C725        C  0.76953949  0.03252805  0.38633222    -0.04200
H726        H  0.80843839  0.02166169  0.39375841     0.09600
H727        H  0.75878086  0.04069293  0.38426061     0.10800
Cu728      Cu  0.79284744  0.98523823  0.38200741     0.44200
Cu729      Cu  0.74999610  0.00031836  0.37439065     0.42000
Cu730      Cu  0.76325476  0.95760718  0.36217455     0.43900
N731        N  0.79879696  0.96063493  0.37512048    -0.32800
N732        N  0.78792557  0.95045185  0.36757220    -0.27100
C733        C  0.79537747  0.93538810  0.36488483    -0.03200
C734        C  0.81168497  0.93621970  0.37103808     0.09000
C735        C  0.81347294  0.95236028  0.37742593     0.02800
H736        H  0.78930172  0.92460048  0.35909456     0.10500
H737        H  0.82453995  0.95766311  0.38343496     0.09600
N738        N  0.73859753  0.96644739  0.36038213    -0.34300
N739        N  0.73351810  0.98169850  0.36505243    -0.26500
C740        C  0.71653778  0.98246759  0.36352150    -0.01700
C741        C  0.71082491  0.96703002  0.35753938     0.06900
C742        C  0.72510360  0.95722687  0.35574516     0.05000
H743        H  0.70889666  0.99322634  0.36707660     0.10100
H744        H  0.72559756  0.94407225  0.35205117     0.08900
N745        N  0.92167950  0.85015621  0.35336576    -0.25400
N746        N  0.91480083  0.86411419  0.34723420    -0.33300
C747        C  0.92351682  0.86913215  0.33355993     0.02900
C748        C  0.93651586  0.85787612  0.33086329     0.08900
C749        C  0.93501439  0.84592626  0.34358281    -0.04200
H750        H  0.92017875  0.87982958  0.32573278     0.09600
H751        H  0.94264270  0.83471096  0.34525575     0.10800
Cu752      Cu  0.89288936  0.87520148  0.35634570     0.44200
Cu753      Cu  0.91160246  0.83720365  0.37420928     0.42000
Cu754      Cu  0.87106643  0.85394118  0.38954941     0.43900
N755        N  0.87020371  0.88384199  0.36617283    -0.32800
N756        N  0.86200134  0.87594281  0.37838419    -0.27100
C757        C  0.84788970  0.88469649  0.38211110    -0.03200
C758        C  0.84725973  0.89870234  0.37169669     0.09000
C759        C  0.86155446  0.89780062  0.36175883     0.02800
H760        H  0.83887857  0.88120600  0.39177089     0.10500
H761        H  0.86546203  0.90667159  0.35212517     0.09600
N762        N  0.88355736  0.83338110  0.40015364    -0.34300
N763        N  0.89828740  0.82738060  0.39494773    -0.26500
C764        C  0.90315848  0.81493957  0.40556265    -0.01700
C765        C  0.89087103  0.81305951  0.41787222     0.06900
C766        C  0.87870440  0.82493237  0.41407578     0.05000
H767        H  0.91500679  0.80818856  0.40470718     0.10100
H768        H  0.86744628  0.82771910  0.42130241     0.08900
N769        N  0.72564605  0.01692483  0.61535915    -0.25400
N770        N  0.71026132  0.01167773  0.61139270    -0.33300
C771        C  0.70071341  0.02506477  0.60711864     0.02900
C772        C  0.71043474  0.03945707  0.60841189     0.08900
C773        C  0.72617714  0.03391843  0.61371539    -0.04200
H774        H  0.68743784  0.02441221  0.60394985     0.09600
H775        H  0.73701940  0.04168388  0.61669370     0.10800
Cu776      Cu  0.70179146  0.98690722  0.61347245     0.44200
Cu777      Cu  0.74479725  0.00059185  0.62388074     0.42000
Cu778      Cu  0.73029453  0.95743724  0.63192855     0.43900
N779        N  0.69503752  0.96209284  0.61875174    -0.32800
N780        N  0.70556716  0.95122115  0.62579857    -0.27100
C781        C  0.69754818  0.93639038  0.62808565    -0.03200
C782        C  0.68121056  0.93808534  0.62220958     0.09000
C783        C  0.68000184  0.95449534  0.61637651     0.02800
H784        H  0.70316869  0.92526919  0.63370013     0.10500
H785        H  0.66899500  0.96052634  0.61097669     0.09600
N786        N  0.75498754  0.96551114  0.63553520    -0.34300
N787        N  0.76056941  0.98097615  0.63240745    -0.26500
C788        C  0.77745968  0.98123998  0.63487898    -0.01700
C789        C  0.78256570  0.96523313  0.63985232     0.06900
C790        C  0.76803704  0.95564514  0.64009529     0.05000
H791        H  0.78547093  0.99208860  0.63266139     0.10100
H792        H  0.76709422  0.94225843  0.64271013     0.08900
N793        N  0.59595652  0.82760714  0.60379778    -0.25400
N794        N  0.61046033  0.83404555  0.59851142    -0.33300
C795        C  0.61566769  0.82561130  0.58472714     0.02900
C796        C  0.60396789  0.81326541  0.58104058     0.08900
C797        C  0.59156448  0.81485300  0.59331630    -0.04200
H798        H  0.62677894  0.82879922  0.57743824     0.09600
H799        H  0.57993588  0.80773038  0.59418545     0.10800
Cu800      Cu  0.62189753  0.85540028  0.60847937     0.44200
Cu801      Cu  0.58248981  0.83759293  0.62443717     0.42000
Cu802      Cu  0.59902085  0.87823034  0.63967449     0.43900
N803        N  0.63004472  0.87844988  0.61788861    -0.32800
N804        N  0.62142682  0.88712418  0.62925415    -0.27100
C805        C  0.62978093  0.90154795  0.63271301    -0.03200
C806        C  0.64429272  0.90188191  0.62301127     0.09000
C807        C  0.64409465  0.88709087  0.61376646     0.02800
H808        H  0.62565699  0.91099100  0.64169113     0.10500
H809        H  0.65345425  0.88289040  0.60474077     0.09600
N810        N  0.57846379  0.86575551  0.65025155    -0.34300
N811        N  0.57252451  0.85095130  0.64516328    -0.26500
C812        C  0.56015714  0.84609848  0.65589008    -0.01700
C813        C  0.55828129  0.85848240  0.66813917     0.06900
C814        C  0.57006685  0.87067442  0.66417627     0.05000
H815        H  0.55345854  0.83420656  0.65515856     0.10100
H816        H  0.57285206  0.88199839  0.67131039     0.08900
N817        N  0.51862072  0.86857864  0.73569678    -0.25400
N818        N  0.53391718  0.86493331  0.74140365    -0.33300
C819        C  0.54378901  0.86028401  0.72837900     0.02900
C820        C  0.53437006  0.86100904  0.71374780     0.08900
C821        C  0.51847265  0.86636057  0.71877311    -0.04200
H822        H  0.55709396  0.85734649  0.72940764     0.09600
H823        H  0.50780219  0.86906192  0.71068085     0.10800
Cu824      Cu  0.54183281  0.86826702  0.76622205     0.44200
Cu825      Cu  0.49911018  0.87762868  0.75128391     0.42000
Cu826      Cu  0.51303846  0.88915765  0.79381910     0.43900
N827        N  0.54812428  0.87505996  0.79079463    -0.32800
N828        N  0.53754928  0.88310159  0.80090847    -0.27100
C829        C  0.54518537  0.88589796  0.81584824    -0.03200
C830        C  0.56131438  0.87929571  0.81502902     0.09000
C831        C  0.56280245  0.87252857  0.79900937     0.02800
H832        H  0.53937606  0.89214799  0.82652192     0.10500
H833        H  0.57370591  0.86622062  0.79371431     0.09600
N834        N  0.48829467  0.89134073  0.78540397    -0.34300
N835        N  0.48292072  0.88686750  0.77020640    -0.26500
C836        C  0.46592813  0.88843988  0.76978896    -0.01700
C837        C  0.46053007  0.89423992  0.78540852     0.06900
C838        C  0.47500029  0.89589363  0.79493785     0.05000
H839        H  0.45806659  0.88499340  0.75915948     0.10100
H840        H  0.47575821  0.89937162  0.80813185     0.08900
N841        N  0.67122021  0.89906805  0.90090273    -0.25400
N842        N  0.66466091  0.90466370  0.88657062    -0.33300
C843        C  0.67329293  0.91835641  0.88141480     0.02900
C844        C  0.68589961  0.92162268  0.89296494     0.08900
C845        C  0.68424726  0.90922335  0.90522796    -0.04200
H846        H  0.67016188  0.92579779  0.87038778     0.09600
H847        H  0.69158197  0.90799866  0.91668849     0.10800
Cu848      Cu  0.64317415  0.89490505  0.87513536     0.44200
Cu849      Cu  0.66121456  0.87837666  0.91421893     0.42000
Cu850      Cu  0.62067199  0.86311832  0.89774882     0.43900
N851        N  0.62036232  0.88504730  0.86677375    -0.32800
N852        N  0.61185001  0.87346717  0.87527691    -0.27100
C853        C  0.59762702  0.86967121  0.86674195    -0.03200
C854        C  0.59724401  0.87936359  0.85222477     0.09000
C855        C  0.61180496  0.88896277  0.85261097     0.02800
H856        H  0.58836237  0.86045408  0.87073973     0.10500
H857        H  0.61591859  0.89806911  0.84328798     0.09600
N858        N  0.63308871  0.85259292  0.91836895    -0.34300
N859        N  0.64788917  0.85770795  0.92426565    -0.26500
C860        C  0.65275967  0.84704958  0.93667807    -0.01700
C861        C  0.64038792  0.83481387  0.93864367     0.06900
C862        C  0.62818259  0.83870558  0.92684981     0.05000
H863        H  0.66466196  0.84781156  0.94334129     0.10100
H864        H  0.61687171  0.83154058  0.92410973     0.08900
N865        N  0.51058673  0.61928279  0.77089640    -0.25400
N866        N  0.50493418  0.61540503  0.78615727    -0.33300
C867        C  0.51801688  0.61102935  0.79605773     0.02900
C868        C  0.53265746  0.61217888  0.78672032     0.08900
C869        C  0.52757073  0.61748933  0.77081328    -0.04200
H870        H  0.51699503  0.60795807  0.80933417     0.09600
H871        H  0.53563921  0.62040444  0.76017969     0.10800
Cu872      Cu  0.48009006  0.61803497  0.79409483     0.44200
Cu873      Cu  0.49469496  0.62795676  0.75139374     0.42000
Cu874      Cu  0.45185808  0.63830250  0.76565986     0.43900
N875        N  0.45550583  0.62428957  0.80068905    -0.32800
N876        N  0.44510812  0.63212130  0.79024133    -0.27100
C877        C  0.43025374  0.63471954  0.79811136    -0.03200
C878        C  0.43145059  0.62821153  0.81425940     0.09000
C879        C  0.44758516  0.62170032  0.81551246     0.02800
H880        H  0.41940965  0.64082773  0.79247372     0.10500
H881        H  0.45318043  0.61558563  0.82637530     0.09600
N882        N  0.46004757  0.64067883  0.74085108    -0.34300
N883        N  0.47532240  0.63663634  0.73534566    -0.26500
C884        C  0.47553773  0.63824320  0.71834504    -0.01700
C885        C  0.45970925  0.64360496  0.71308425     0.06900
C886        C  0.45027475  0.64498191  0.72764532     0.05000
H887        H  0.48620201  0.63514938  0.71038440     0.10100
H888        H  0.43700885  0.64813622  0.72853255     0.08900
N889        N  0.34561876  0.64852494  0.92416007    -0.25400
N890        N  0.36012401  0.65394704  0.91782507    -0.33300
C891        C  0.36502929  0.66791287  0.92616687     0.02900
C892        C  0.35313494  0.67156291  0.93834130     0.08900
C893        C  0.34093490  0.65908406  0.93674323    -0.04200
H894        H  0.37613126  0.67527283  0.92310516     0.09600
H895        H  0.32928480  0.65806423  0.94380665     0.10800
Cu896      Cu  0.37212798  0.64369171  0.89687462     0.44200
Cu897      Cu  0.33253972  0.62748200  0.91444862     0.42000
Cu898      Cu  0.34969781  0.61167913  0.87454184     0.43900
N899        N  0.38063041  0.63366346  0.87417932    -0.32800
N900        N  0.37214063  0.62202915  0.86572882    -0.27100
C901        C  0.38058557  0.61827204  0.85144989    -0.03200
C902        C  0.39503669  0.62804071  0.85095382     0.09000
C903        C  0.39471245  0.63765294  0.86551419     0.02800
H904        H  0.37652878  0.60908357  0.84218210     0.10500
H905        H  0.40396943  0.64688130  0.86950459     0.09600
N906        N  0.32897511  0.60116896  0.88674514    -0.34300
N907        N  0.32278417  0.60646540  0.90135897    -0.26500
C908        C  0.31028516  0.59583496  0.90610637    -0.01700
C909        C  0.30858836  0.58343401  0.89383902     0.06900
C910        C  0.32062141  0.58720840  0.88183403     0.05000
H911        H  0.30332499  0.59677178  0.91782570     0.10100
H912        H  0.32355495  0.57995932  0.87062474     0.08900
N913        N  0.36277529  0.73932210  0.97799270    -0.25400
N914        N  0.35990946  0.74480709  0.96245138    -0.33300
C915        C  0.35567468  0.73165098  0.95256370     0.02900
C916        C  0.35584974  0.71715830  0.96222658     0.08900
C917        C  0.36044979  0.72240141  0.97829351    -0.04200
H918        H  0.35329666  0.73250470  0.93913476     0.09600
H919        H  0.36250172  0.71446577  0.98922632     0.10800
Cu920      Cu  0.36341689  0.76956352  0.95441647     0.44200
Cu921      Cu  0.37082575  0.75525974  0.99767308     0.42000
Cu922      Cu  0.38195359  0.79808804  0.98397941     0.43900
N923        N  0.36962817  0.79432753  0.94827781    -0.32800
N924        N  0.37673946  0.80482904  0.95914224    -0.27100
C925        C  0.37926148  0.81983906  0.95151896    -0.03200
C926        C  0.37345510  0.81864868  0.93510180     0.09000
C927        C  0.36744005  0.80234614  0.93343650     0.02800
H928        H  0.38477974  0.83080710  0.95752492     0.10500
H929        H  0.36184828  0.79673060  0.92230493     0.09600
N930        N  0.38366818  0.78967408  0.00879852    -0.34300
N931        N  0.37935174  0.77437632  0.01404766    -0.26500
C932        C  0.38076420  0.77387866  0.03105285    -0.01700
C933        C  0.38630121  0.78954517  0.03660187     0.06900
C934        C  0.38796230  0.79919353  0.02220089     0.05000
H935        H  0.37749481  0.76311225  0.03881027     0.10100
H936        H  0.39139068  0.81241277  0.02154663     0.08900
N937        N  0.35131364  0.92726908  0.84786658    -0.25400
N938        N  0.34634356  0.92141694  0.86273153    -0.33300
C939        C  0.33249097  0.92988965  0.86773040     0.02900
C940        C  0.32845966  0.94163293  0.85551510     0.08900
C941        C  0.34058855  0.93964676  0.84304058    -0.04200
H942        H  0.32542930  0.92716150  0.87910694     0.09600
H943        H  0.34122302  0.94626002  0.83110055     0.10800
Cu944      Cu  0.35699737  0.90081733  0.87507083     0.44200
Cu945      Cu  0.37188461  0.91714566  0.83445826     0.42000
Cu946      Cu  0.38886310  0.87818304  0.85263512     0.43900
N947        N  0.36739812  0.87838958  0.88395207    -0.32800
N948        N  0.37901453  0.86987600  0.87550138    -0.27100
C949        C  0.38298438  0.85578453  0.88417284    -0.03200
C950        C  0.37338285  0.85546416  0.89873851     0.09000
C951        C  0.36363221  0.86993861  0.89823373     0.02800
H952        H  0.39215023  0.84647997  0.88015042     0.10500
H953        H  0.35441936  0.87398498  0.90747783     0.09600
N954        N  0.39839717  0.88965838  0.83103564    -0.34300
N955        N  0.39261500  0.90390911  0.82443846    -0.26500
C956        C  0.40269255  0.90833355  0.81139047    -0.01700
C957        C  0.41524563  0.89623228  0.80975742     0.06900
C958        C  0.41214375  0.88466171  0.82239850     0.05000
H959        H  0.40134386  0.91979285  0.80406570     0.10100
H960        H  0.41976082  0.87376727  0.82558129     0.08900
N961        N  0.61496817  0.73166143  0.01390557    -0.25400
N962        N  0.61150203  0.71618254  0.00857402    -0.33300
C963        C  0.60723717  0.70648936  0.02184652     0.02900
C964        C  0.60802436  0.71621394  0.03625946     0.08900
C965        C  0.61301297  0.73211644  0.03085828    -0.04200
H966        H  0.60444755  0.69312423  0.02111441     0.09600
H967        H  0.61558325  0.74301660  0.03869271     0.10800
Cu968      Cu  0.61434095  0.70784062  0.98389521     0.44200
Cu969      Cu  0.62328382  0.75097756  0.99768295     0.42000
Cu970      Cu  0.63334766  0.73646835  0.95484800     0.43900
N971        N  0.62019971  0.70113890  0.95925278    -0.32800
N972        N  0.62749719  0.71164699  0.94852373    -0.27100
C973        C  0.62975946  0.70367797  0.93365762    -0.03200
C974        C  0.62359351  0.68741023  0.93520589     0.09000
C975        C  0.61763226  0.68619330  0.95154855     0.02800
H976        H  0.63535271  0.70934533  0.92255315     0.10500
H977        H  0.61183001  0.67529341  0.95740864     0.09600
N978        N  0.63568586  0.76137254  0.96290094    -0.34300
N979        N  0.63175953  0.76691093  0.97819530    -0.26500
C980        C  0.63338198  0.78391073  0.97840132    -0.01700
C981        C  0.63864172  0.78915798  0.96254669     0.06900
C982        C  0.63993421  0.77458386  0.95309421     0.05000
H983        H  0.63037995  0.79187787  0.98909065     0.10100
H984        H  0.64301728  0.77369230  0.93981149     0.08900
N985        N  0.60023330  0.60116025  0.82614249    -0.25400
N986        N  0.59517541  0.61585087  0.83235611    -0.33300
C987        C  0.58156369  0.62119804  0.82370508     0.02900
C988        C  0.57779826  0.60939135  0.81145466     0.08900
C989        C  0.58982000  0.59679489  0.81334227    -0.04200
H990        H  0.57449335  0.63253046  0.82661115     0.09600
H991        H  0.59059401  0.58508026  0.80634304     0.10800
Cu992      Cu  0.60551203  0.62743712  0.85354100     0.44200
Cu993      Cu  0.62052004  0.58739113  0.83632895     0.42000
Cu994      Cu  0.63586213  0.60351700  0.87685948     0.43900
N995        N  0.61567619  0.63566500  0.87631175    -0.32800
N996        N  0.62662040  0.62664292  0.88512479    -0.27100
C997        C  0.63077963  0.63520024  0.89922836    -0.03200
C998        C  0.62201077  0.65029083  0.89922761     0.09000
C999        C  0.61255235  0.65021183  0.88456848     0.02800
H1000       H  0.63963356  0.63082254  0.90866896     0.10500
H1001       H  0.60406577  0.65998988  0.88019615     0.09600
N1002       N  0.64602847  0.58268393  0.86456442    -0.34300
N1003       N  0.64093677  0.57694049  0.84969930    -0.26500
C1004       C  0.65159027  0.56456750  0.84471954    -0.01700
C1005       C  0.66379436  0.56247310  0.85709395     0.06900
C1006       C  0.65988673  0.57414403  0.86941349     0.05000
H1007       H  0.65092711  0.55811817  0.83269108     0.10100
H1008       H  0.66711543  0.57687788  0.88068309     0.08900
N1009       N  0.73356683  0.48058770  0.63148823    -0.25400
N1010       N  0.73888699  0.46508575  0.63485850    -0.33300
C1011       C  0.72567652  0.45551873  0.63958812     0.02900
C1012       C  0.71131953  0.46535658  0.63921607     0.08900
C1013       C  0.71668913  0.48118786  0.63397446    -0.04200
H1014       H  0.72639560  0.44216889  0.64245030     0.09600
H1015       H  0.70886921  0.49214599  0.63162288     0.10800
Cu1016     Cu  0.76346777  0.45661821  0.63145574     0.44200
Cu1017     Cu  0.74969971  0.49976547  0.62271165     0.42000
Cu1018     Cu  0.79264136  0.48532958  0.61274979     0.43900
N1019       N  0.78809570  0.44987931  0.62551590    -0.32800
N1020       N  0.79888959  0.46043949  0.61838931    -0.27100
C1021       C  0.81374620  0.45245780  0.61611166    -0.03200
C1022       C  0.81212667  0.43612549  0.62208574     0.09000
C1023       C  0.79575011  0.43488589  0.62795239     0.02800
H1024       H  0.82489607  0.45816204  0.61064732     0.10500
H1025       H  0.78984244  0.42394622  0.63363010     0.09600
N1026       N  0.78446523  0.51017866  0.61023610    -0.34300
N1027       N  0.76912204  0.51566343  0.61404521    -0.26500
C1028       C  0.76880791  0.53263751  0.61221896    -0.01700
C1029       C  0.78464102  0.53792710  0.60695470     0.06900
C1030       C  0.79420045  0.52340689  0.60587424     0.05000
H1031       H  0.75805924  0.54056787  0.61509925     0.10100
H1032       H  0.80749876  0.52257114  0.60284594     0.08900
N1033       N  0.89836299  0.32611756  0.60407008    -0.25400
N1034       N  0.88363284  0.33205601  0.59881850    -0.33300
C1035       C  0.87875502  0.32350154  0.58498797     0.02900
C1036       C  0.89090948  0.31161969  0.58125122     0.08900
C1037       C  0.90323261  0.31359591  0.59353182    -0.04200
H1038       H  0.86756034  0.32633254  0.57768227     0.09600
H1039       H  0.91513333  0.30693329  0.59435088     0.10800
Cu1040     Cu  0.87139362  0.35297366  0.60884608     0.44200
Cu1041     Cu  0.91156519  0.33639506  0.62467926     0.42000
Cu1042     Cu  0.89317349  0.37558788  0.64100814     0.43900
N1043       N  0.86258939  0.37568690  0.61857253    -0.32800
N1044       N  0.87078742  0.38419311  0.63036856    -0.27100
C1045       C  0.86229681  0.39853561  0.63379017    -0.03200
C1046       C  0.84813087  0.39902602  0.62361617     0.09000
C1047       C  0.84866504  0.38438596  0.61412455     0.02800
H1048       H  0.86619137  0.40790972  0.64294126     0.10500
H1049       H  0.83970072  0.38040339  0.60461277     0.09600
N1050       N  0.91453209  0.36409029  0.65102585    -0.34300
N1051       N  0.92123495  0.34980440  0.64545057    -0.26500
C1052       C  0.93417876  0.34551151  0.65571346    -0.01700
C1053       C  0.93562415  0.35773250  0.66817208     0.06900
C1054       C  0.92299133  0.36923697  0.66482419     0.05000
H1055       H  0.94159643  0.33409547  0.65451376     0.10100
H1056       H  0.91974218  0.38023918  0.67225867     0.08900
N1057       N  0.97625209  0.63595037  0.76366596    -0.25400
N1058       N  0.96108461  0.64055859  0.75832819    -0.33300
C1059       C  0.95165185  0.64529172  0.77163293     0.02900
C1060       C  0.96121608  0.64362205  0.78607855     0.08900
C1061       C  0.97674964  0.63761214  0.78065162    -0.04200
H1062       H  0.93849972  0.64892598  0.77090202     0.09600
H1063       H  0.98737779  0.63411478  0.78849086     0.10800
Cu1064     Cu  0.95257001  0.63831412  0.73362769     0.44200
Cu1065     Cu  0.99501712  0.62648662  0.74740280     0.42000
Cu1066     Cu  0.97969827  0.61655644  0.70496302     0.43900
N1067       N  0.94526124  0.63193800  0.70926557    -0.32800
N1068       N  0.95517661  0.62354920  0.69877149    -0.27100
C1069       C  0.94684219  0.62090927  0.68418231    -0.03200
C1070       C  0.93095344  0.62797012  0.68564539     0.09000
C1071       C  0.93033208  0.63485847  0.70166244     0.02800
H1072       H  0.95198506  0.61437060  0.67334096     0.10500
H1073       H  0.91981069  0.64141664  0.70740842     0.09600
N1074       N  0.00457623  0.61332524  0.71266637    -0.34300
N1075       N  0.01043517  0.61721643  0.72784509    -0.26500
C1076       C  0.02737511  0.61513399  0.72781081    -0.01700
C1077       C  0.03224699  0.60960929  0.71192235     0.06900
C1078       C  0.01751101  0.60864236  0.70269545     0.05000
H1079       H  0.03558041  0.61808505  0.73832856     0.10100
H1080       H  0.01634930  0.60557591  0.68942919     0.08900
N1081       N  0.84606666  0.64821626  0.57507180    -0.25400
N1082       N  0.85989122  0.65435291  0.58221489    -0.33300
C1083       C  0.86500022  0.66810196  0.57364865     0.02900
C1084       C  0.85395017  0.67082962  0.56047981     0.08900
C1085       C  0.84203364  0.65805891  0.56172145    -0.04200
H1086       H  0.87562774  0.67593676  0.57718133     0.09600
H1087       H  0.83096332  0.65638227  0.55389332     0.10800
Cu1088     Cu  0.87076717  0.64509132  0.60420710     0.44200
Cu1089     Cu  0.83288780  0.62729264  0.58472679     0.42000
Cu1090     Cu  0.84889320  0.61195952  0.62540268     0.43900
N1091       N  0.87914638  0.63480207  0.62682040    -0.32800
N1092       N  0.87097797  0.62260119  0.63477348    -0.27100
C1093       C  0.87957083  0.61844018  0.64885475    -0.03200
C1094       C  0.89376793  0.62855771  0.64974222     0.09000
C1095       C  0.89314096  0.63878012  0.63562108     0.02800
H1096       H  0.87584598  0.60867566  0.65766145     0.10500
H1097       H  0.90222720  0.64829799  0.63192905     0.09600
N1098       N  0.82846351  0.60144046  0.61271315    -0.34300
N1099       N  0.82272351  0.60657851  0.59786150    -0.26500
C1100       C  0.81036758  0.59592391  0.59283994    -0.01700
C1101       C  0.80828344  0.58367053  0.60517330     0.06900
C1102       C  0.81993998  0.58754704  0.61750779     0.05000
H1103       H  0.80382880  0.59670160  0.58086957     0.10100
H1104       H  0.82256289  0.58036766  0.62883657     0.08900
N1105       N  0.76826747  0.48876430  0.88071050    -0.25400
N1106       N  0.78378799  0.49419102  0.88378540    -0.33300
C1107       C  0.79352798  0.48101804  0.88827774     0.02900
C1108       C  0.78378182  0.46658441  0.88805430     0.08900
C1109       C  0.76782675  0.47186656  0.88314995    -0.04200
H1110       H  0.80690623  0.48182653  0.89093691     0.09600
H1111       H  0.75686419  0.46398350  0.88104864     0.10800
Cu1112     Cu  0.79197538  0.51891813  0.88044850     0.44200
Cu1113     Cu  0.74876797  0.50479028  0.87253049     0.42000
Cu1114     Cu  0.76253595  0.54804797  0.86287215     0.43900
N1115       N  0.79832767  0.54374063  0.87471482    -0.32800
N1116       N  0.78748758  0.55451220  0.86798762    -0.27100
C1117       C  0.79522743  0.56951655  0.86577394    -0.03200
C1118       C  0.81169683  0.56803373  0.87137771     0.09000
C1119       C  0.81326433  0.55156715  0.87695587     0.02800
H1120       H  0.78926094  0.58068370  0.86062794     0.10500
H1121       H  0.82438461  0.54572097  0.88232653     0.09600
N1122       N  0.73770853  0.53964939  0.86088965    -0.34300
N1123       N  0.73248720  0.52417480  0.86457090    -0.26500
C1124       C  0.71549361  0.52367745  0.86311505    -0.01700
C1125       C  0.70990663  0.53953338  0.85823208     0.06900
C1126       C  0.72427729  0.54929601  0.85698538     0.05000
H1127       H  0.70776521  0.51276827  0.86595443     0.10100
H1128       H  0.72489065  0.56264766  0.85410832     0.08900
N1129       N  0.92211909  0.65400149  0.85386268    -0.25400
N1130       N  0.91587686  0.63947510  0.84837890    -0.33300
C1131       C  0.92464821  0.63438586  0.83475592     0.02900
C1132       C  0.93701524  0.64617713  0.83141041     0.08900
C1133       C  0.93507519  0.65851685  0.84369838    -0.04200
H1134       H  0.92172538  0.62326001  0.82736994     0.09600
H1135       H  0.94212409  0.67017510  0.84480269     0.10800
Cu1136     Cu  0.89450280  0.62771462  0.85804336     0.44200
Cu1137     Cu  0.91170387  0.66736199  0.87433077     0.42000
Cu1138     Cu  0.87156508  0.64998101  0.88970391     0.43900
N1139       N  0.87162167  0.61911939  0.86758277    -0.32800
N1140       N  0.86297450  0.62748694  0.87915861    -0.27100
C1141       C  0.84863499  0.61897949  0.88257406    -0.03200
C1142       C  0.84830089  0.60462194  0.87263351     0.09000
C1143       C  0.86302934  0.60507232  0.86328728     0.02800
H1144       H  0.83919250  0.62294987  0.89161682     0.10500
H1145       H  0.86717833  0.59592623  0.85401798     0.09600
N1146       N  0.88336838  0.67112229  0.89994462    -0.34300
N1147       N  0.89799204  0.67739070  0.89475811    -0.26500
C1148       C  0.90242627  0.69017108  0.90517684    -0.01700
C1149       C  0.88995548  0.69198716  0.91732975     0.06900
C1150       C  0.87814708  0.67972267  0.91363969     0.05000
H1151       H  0.91411950  0.69718980  0.90432628     0.10100
H1152       H  0.86690460  0.67676213  0.92082155     0.08900
N1153       N  0.97562812  0.36887745  0.73529587    -0.25400
N1154       N  0.96024441  0.36541606  0.74088735    -0.33300
C1155       C  0.95048613  0.36062667  0.72784242     0.02900
C1156       C  0.96006015  0.36106458  0.71331419     0.08900
C1157       C  0.97594279  0.36639475  0.71840914    -0.04200
H1158       H  0.93715443  0.35777722  0.72877882     0.09600
H1159       H  0.98671593  0.36889359  0.71038612     0.10800
Cu1160     Cu  0.95200176  0.36904430  0.76552875     0.44200
Cu1161     Cu  0.99502125  0.37799929  0.75098328     0.42000
Cu1162     Cu  0.98044576  0.38987571  0.79327087     0.43900
N1163       N  0.94545451  0.37567028  0.79005171    -0.32800
N1164       N  0.95594101  0.38367402  0.80027976    -0.27100
C1165       C  0.94824275  0.38623589  0.81523205    -0.03200
C1166       C  0.93215929  0.37952641  0.81428653     0.09000
C1167       C  0.93076813  0.37293856  0.79818555     0.02800
H1168       H  0.95398541  0.39237747  0.82600369     0.10500
H1169       H  0.91993974  0.36658235  0.79279420     0.09600
N1170       N  0.00531154  0.39194168  0.78517537    -0.34300
N1171       N  0.01092715  0.38730188  0.77011368    -0.26500
C1172       C  0.02794340  0.38867368  0.77001963    -0.01700
C1173       C  0.03310383  0.39451494  0.78570571     0.06900
C1174       C  0.01846914  0.39641359  0.79493146     0.05000
H1175       H  0.03597329  0.38502175  0.75958543     0.10100
H1176       H  0.01749749  0.39994311  0.80809761     0.08900
N1177       N  0.84572069  0.35750691  0.92376857    -0.25400
N1178       N  0.86049518  0.35242707  0.91777099    -0.33300
C1179       C  0.86555630  0.33862891  0.92629754     0.02900
C1180       C  0.85348847  0.33473646  0.93822703     0.08900
C1181       C  0.84102621  0.34689586  0.93629963    -0.04200
H1182       H  0.87687530  0.33150523  0.92348724     0.09600
H1183       H  0.82917818  0.34762561  0.94306398     0.10800
Cu1184     Cu  0.87270865  0.36277202  0.89693854     0.44200
Cu1185     Cu  0.83219487  0.37804441  0.91365229     0.42000
Cu1186     Cu  0.84975112  0.39372052  0.87393602     0.43900
N1187       N  0.88140146  0.37286234  0.87429926    -0.32800
N1188       N  0.87268083  0.38414860  0.86562513    -0.27100
C1189       C  0.88121514  0.38809773  0.85145799    -0.03200
C1190       C  0.89598587  0.37882197  0.85124556     0.09000
C1191       C  0.89574595  0.36928438  0.86587147     0.02800
H1192       H  0.87697717  0.39705587  0.84204880     0.10500
H1193       H  0.90521968  0.36036492  0.87004477     0.09600
N1194       N  0.82846137  0.40373762  0.88546931    -0.34300
N1195       N  0.82210266  0.39853150  0.90003925    -0.26500
C1196       C  0.80928599  0.40895476  0.90437312    -0.01700
C1197       C  0.80757191  0.42110805  0.89186602     0.06900
C1198       C  0.81991236  0.41741823  0.88016770     0.05000
H1199       H  0.80217673  0.40810886  0.91600974     0.10100
H1200       H  0.82297916  0.42460946  0.86895738     0.08900
N1201       N  0.23217028  0.48145357  0.86645147    -0.25400
N1202       N  0.23744177  0.46626240  0.86179929    -0.33300
C1203       C  0.22405526  0.45677964  0.85738766     0.02900
C1204       C  0.20962745  0.46632925  0.85931901     0.08900
C1205       C  0.21515152  0.48190969  0.86514056    -0.04200
H1206       H  0.22473988  0.44362283  0.85373218     0.09600
H1207       H  0.20736887  0.49256641  0.86869544     0.10800
Cu1208     Cu  0.26224171  0.45781381  0.86336545     0.44200
Cu1209     Cu  0.24857373  0.50040886  0.87535741     0.42000
Cu1210     Cu  0.29159183  0.48558291  0.88323623     0.43900
N1211       N  0.28691470  0.45074867  0.86884266    -0.32800
N1212       N  0.29769238  0.46095314  0.87649375    -0.27100
C1213       C  0.31240677  0.45274289  0.87881226    -0.03200
C1214       C  0.31074197  0.43662530  0.87231830     0.09000
C1215       C  0.29446312  0.43574340  0.86609201     0.02800
H1216       H  0.32344302  0.45809534  0.88483338     0.10500
H1217       H  0.28848590  0.42497469  0.86016538     0.09600
N1218       N  0.28375637  0.51037384  0.88691622    -0.34300
N1219       N  0.26833245  0.51607012  0.88383447    -0.26500
C1220       C  0.26823042  0.53298962  0.88620761    -0.01700
C1221       C  0.28429773  0.53800796  0.89106670     0.06900
C1222       C  0.29375430  0.52338215  0.89134617     0.05000
H1223       H  0.25745142  0.54108438  0.88397416     0.10100
H1224       H  0.30714327  0.52234569  0.89386907     0.08900
N1225       N  0.39835538  0.32836474  0.89501999    -0.25400
N1226       N  0.38350385  0.33419362  0.90006061    -0.33300
C1227       C  0.37864516  0.32579649  0.91400830     0.02900
C1228       C  0.39093834  0.31413333  0.91802828     0.08900
C1229       C  0.40331054  0.31607992  0.90579228    -0.04200
H1230       H  0.36730146  0.32851312  0.92112650     0.09600
H1231       H  0.41526514  0.30949930  0.90510561     0.10800
Cu1232     Cu  0.37093205  0.35461727  0.88932675     0.44200
Cu1233     Cu  0.41158968  0.33836221  0.87427969     0.42000
Cu1234     Cu  0.39255543  0.37650443  0.85646032     0.43900
N1235       N  0.36170818  0.37673743  0.87856001    -0.32800
N1236       N  0.36983786  0.38492510  0.86649133    -0.27100
C1237       C  0.36106595  0.39890290  0.86236236    -0.03200
C1238       C  0.34676958  0.39950068  0.87233820     0.09000
C1239       C  0.34753427  0.38530285  0.88247602     0.02800
H1240       H  0.36487230  0.40797673  0.85287828     0.10500
H1241       H  0.33856121  0.38154296  0.89207009     0.09600
N1242       N  0.41445374  0.36538608  0.84725409    -0.34300
N1243       N  0.42141469  0.35145296  0.85336937    -0.26500
C1244       C  0.43471427  0.34726031  0.84352370    -0.01700
C1245       C  0.43611506  0.35918722  0.83077656     0.06900
C1246       C  0.42308973  0.37040703  0.83352189     0.05000
H1247       H  0.44239655  0.33607965  0.84518077     0.10100
H1248       H  0.41968956  0.38108996  0.82570160     0.08900
N1249       N  0.13150836  0.23838634  0.97885448    -0.25400
N1250       N  0.13524610  0.24371255  0.96344169    -0.33300
C1251       C  0.13962646  0.23038362  0.95384814     0.02900
C1252       C  0.13863270  0.21596822  0.96358645     0.08900
C1253       C  0.13339855  0.22142652  0.97937057    -0.04200
H1254       H  0.14259741  0.23107047  0.94052795     0.09600
H1255       H  0.13056821  0.21361611  0.99022042     0.10800
Cu1256     Cu  0.13254637  0.26849570  0.95507798     0.44200
Cu1257     Cu  0.12280740  0.25448832  0.99804867     0.42000
Cu1258     Cu  0.11306856  0.29731910  0.98381482     0.43900
N1259       N  0.12663358  0.29327389  0.94857144    -0.32800
N1260       N  0.11919322  0.30384498  0.95914665    -0.27100
C1261       C  0.11666265  0.31872211  0.95128459    -0.03200
C1262       C  0.12279063  0.31739226  0.93500277     0.09000
C1263       C  0.12902453  0.30113231  0.93366583     0.02800
H1264       H  0.11076021  0.32964955  0.95699116     0.10500
H1265       H  0.13474629  0.29538886  0.92266613     0.09600
N1266       N  0.11012629  0.28907643  0.00855562    -0.34300
N1267       N  0.11393218  0.27372144  0.01400885    -0.26500
C1268       C  0.11192491  0.27331438  0.03094920    -0.01700
C1269       C  0.10653216  0.28910989  0.03624114     0.06900
C1270       C  0.10556924  0.29873787  0.02176320     0.05000
H1271       H  0.11478168  0.26254109  0.03885749     0.10100
H1272       H  0.10252569  0.31204236  0.02095709     0.08900
N1273       N  0.14153023  0.42767154  0.84922106    -0.25400
N1274       N  0.14683095  0.42146267  0.86382024    -0.33300
C1275       C  0.16050091  0.43014020  0.86895978     0.02900
C1276       C  0.16406642  0.44240489  0.85711888     0.08900
C1277       C  0.15185605  0.44050291  0.84470735    -0.04200
H1278       H  0.16778016  0.42720252  0.88014413     0.09600
H1279       H  0.15092402  0.44747574  0.83299350     0.10800
Cu1280     Cu  0.13686264  0.40019810  0.87555984     0.44200
Cu1281     Cu  0.12110338  0.41736412  0.83573915     0.42000
Cu1282     Cu  0.10480692  0.37767591  0.85328999     0.43900
N1283       N  0.12699983  0.37741383  0.88409811    -0.32800
N1284       N  0.11527228  0.36894324  0.87575779    -0.27100
C1285       C  0.11169727  0.35461759  0.88423284    -0.03200
C1286       C  0.12169019  0.35410883  0.89853830     0.09000
C1287       C  0.13123450  0.36871578  0.89809093     0.02800
H1288       H  0.10252447  0.34529517  0.88026648     0.10500
H1289       H  0.14060438  0.37270722  0.90719946     0.09600
N1290       N  0.09499705  0.38947570  0.83194839    -0.34300
N1291       N  0.10057703  0.40391746  0.82558323    -0.26500
C1292       C  0.09046265  0.40839957  0.81258985    -0.01700
C1293       C  0.07808703  0.39615494  0.81073797     0.06900
C1294       C  0.08132995  0.38442442  0.82320403     0.05000
H1295       H  0.09167747  0.41997997  0.80543324     0.10100
H1296       H  0.07388610  0.37334883  0.82616914     0.08900
N1297       N  0.26041291  0.48151304  0.13223338    -0.25400
N1298       N  0.25475999  0.46603313  0.13514537    -0.33300
C1299       C  0.26771845  0.45612327  0.13986267     0.02900
C1300       C  0.28224661  0.46571416  0.13994915     0.08900
C1301       C  0.27725003  0.48175136  0.13499961    -0.04200
H1302       H  0.26671884  0.44272499  0.14239700     0.09600
H1303       H  0.28530113  0.49261851  0.13303106     0.10800
Cu1304     Cu  0.23008567  0.45809024  0.13119658     0.44200
Cu1305     Cu  0.24483294  0.50124671  0.12373689     0.42000
Cu1306     Cu  0.20188135  0.48785526  0.11278306     0.43900
N1307       N  0.20530700  0.45213986  0.12504902    -0.32800
N1308       N  0.19487237  0.46311280  0.11801953    -0.27100
C1309       C  0.17974035  0.45567865  0.11572425    -0.03200
C1310       C  0.18079775  0.43926749  0.12159269     0.09000
C1311       C  0.19713692  0.43740794  0.12740090     0.02800
H1312       H  0.16877348  0.46182415  0.11037192     0.10500
H1313       H  0.20265406  0.42624353  0.13303175     0.09600
N1314       N  0.21044921  0.51261350  0.11120426    -0.34300
N1315       N  0.22579982  0.51776429  0.11541538    -0.26500
C1316       C  0.22632441  0.53479591  0.11426215    -0.01700
C1317       C  0.21060841  0.54045090  0.10901778     0.06900
C1318       C  0.20091685  0.52609878  0.10724547     0.05000
H1319       H  0.23712065  0.54248933  0.11757676     0.10100
H1320       H  0.18764920  0.52552742  0.10402845     0.08900
N1321       N  0.07365728  0.35057850  0.14625521    -0.25400
N1322       N  0.07950574  0.36541854  0.15133551    -0.33300
C1323       C  0.07098642  0.37034902  0.16518153     0.02900
C1324       C  0.05921610  0.35812346  0.16909691     0.08900
C1325       C  0.06123044  0.34570580  0.15690399    -0.04200
H1326       H  0.07361475  0.38175165  0.17224913     0.09600
H1327       H  0.05452892  0.33381922  0.15611180     0.10800
Cu1328     Cu  0.09988513  0.37807196  0.14060571     0.44200
Cu1329     Cu  0.08364997  0.33738029  0.12547019     0.42000
Cu1330     Cu  0.12147446  0.35677016  0.10738961     0.43900
N1331       N  0.12166825  0.38763169  0.12945720    -0.32800
N1332       N  0.12973319  0.37960788  0.11723774    -0.27100
C1333       C  0.14343653  0.38862248  0.11275822    -0.03200
C1334       C  0.14398497  0.40297500  0.12265747     0.09000
C1335       C  0.13004749  0.40198994  0.13312495     0.02800
H1336       H  0.15234724  0.38495334  0.10307086     0.10500
H1337       H  0.12632715  0.41095082  0.14274982     0.09600
N1338       N  0.11042827  0.33486242  0.09816933    -0.34300
N1339       N  0.09660192  0.32776853  0.10436231    -0.26500
C1340       C  0.09236436  0.31455643  0.09440852    -0.01700
C1341       C  0.10414851  0.31336346  0.08151160     0.06900
C1342       C  0.11533527  0.32640837  0.08428493     0.05000
H1343       H  0.08123116  0.30681269  0.09608431     0.10100
H1344       H  0.12589405  0.32996866  0.07637315     0.08900
N1345       N  0.36426010  0.23916910  0.02090142    -0.25400
N1346       N  0.36088224  0.24438909  0.03642709    -0.33300
C1347       C  0.35638936  0.23108754  0.04597588     0.02900
C1348       C  0.35692653  0.21676023  0.03610681     0.08900
C1349       C  0.36200843  0.22224696  0.02026601    -0.04200
H1350       H  0.35359408  0.23173243  0.05933700     0.09600
H1351       H  0.36443592  0.21448160  0.00928700     0.10800
Cu1352     Cu  0.36399195  0.26895378  0.04496154     0.44200
Cu1353     Cu  0.37284564  0.25553223  0.00180998     0.42000
Cu1354     Cu  0.38204708  0.29865991  0.01633477     0.43900
N1355       N  0.36945152  0.29364057  0.05177546    -0.32800
N1356       N  0.37626528  0.30466741  0.04124960    -0.27100
C1357       C  0.37830486  0.31950604  0.04934062    -0.03200
C1358       C  0.37251655  0.31760809  0.06570133     0.09000
C1359       C  0.36699813  0.30110563  0.06684907     0.02800
H1360       H  0.38354469  0.33080683  0.04371459     0.10500
H1361       H  0.36158647  0.29496743  0.07779290     0.09600
N1362       N  0.38507252  0.29047797  0.99154386    -0.34300
N1363       N  0.38152784  0.27507268  0.98602759    -0.26500
C1364       C  0.38364916  0.27475096  0.96909504    -0.01700
C1365       C  0.38882954  0.29064194  0.96386037     0.06900
C1366       C  0.38956152  0.30024105  0.97837790     0.05000
H1367       H  0.38101813  0.26395146  0.96114218     0.10100
H1368       H  0.39242760  0.31358182  0.97923997     0.08900
N1369       N  0.34998491  0.42685486  0.15172128    -0.25400
N1370       N  0.34441747  0.42015515  0.13744115    -0.33300
C1371       C  0.33066464  0.42865067  0.13225204     0.02900
C1372       C  0.32733366  0.44130933  0.14372754     0.08900
C1373       C  0.33975618  0.43984518  0.15597485    -0.04200
H1374       H  0.32322419  0.42538152  0.12126586     0.09600
H1375       H  0.34093169  0.44725687  0.16739465     0.10800
Cu1376     Cu  0.35427110  0.39866389  0.12612912     0.44200
Cu1377     Cu  0.37062018  0.41700346  0.16519379     0.42000
Cu1378     Cu  0.38546324  0.37610530  0.14945290     0.43900
N1379       N  0.36446006  0.37597471  0.11787700    -0.32800
N1380       N  0.37582695  0.36745030  0.12664121    -0.27100
C1381       C  0.38008352  0.35340669  0.11802665    -0.03200
C1382       C  0.37091388  0.35315780  0.10318379     0.09000
C1383       C  0.36113296  0.36759735  0.10346006     0.02800
H1384       H  0.38930120  0.34420811  0.12216972     0.10500
H1385       H  0.35235054  0.37178311  0.09386728     0.09600
N1386       N  0.39582927  0.38853930  0.17009952    -0.34300
N1387       N  0.39095313  0.40354408  0.17568344    -0.26500
C1388       C  0.40165518  0.40848410  0.18802721    -0.01700
C1389       C  0.41365511  0.39592879  0.19027352     0.06900
C1390       C  0.40958343  0.38355436  0.17872036     0.05000
H1391       H  0.40113999  0.42057383  0.19438391     0.10100
H1392       H  0.41661982  0.37212163  0.17614198     0.08900
N1393       N  0.63036612  0.23886618  0.52024221    -0.25400
N1394       N  0.63440948  0.24404328  0.53562529    -0.33300
C1395       C  0.63888188  0.23063959  0.54505225     0.02900
C1396       C  0.63764574  0.21630133  0.53524606     0.08900
C1397       C  0.63215953  0.22189154  0.51958065    -0.04200
H1398       H  0.64212993  0.23123458  0.55831210     0.09600
H1399       H  0.62914609  0.21416960  0.50871671     0.10800
Cu1400     Cu  0.63211988  0.26872851  0.54421433     0.44200
Cu1401     Cu  0.62152864  0.25533292  0.50136671     0.42000
Cu1402     Cu  0.61282242  0.29833438  0.51631058     0.43900
N1403       N  0.62665398  0.29338801  0.55129052    -0.32800
N1404       N  0.61927997  0.30431244  0.54104039    -0.27100
C1405       C  0.61700316  0.31901375  0.54930843    -0.03200
C1406       C  0.62322813  0.31715843  0.56550675     0.09000
C1407       C  0.62925679  0.30080732  0.56637089     0.02800
H1408       H  0.61118623  0.33015889  0.54394736     0.10500
H1409       H  0.63496194  0.29469339  0.57717658     0.09600
N1410       N  0.60934839  0.29038272  0.49153161    -0.34300
N1411       N  0.61274341  0.27501300  0.48583437    -0.26500
C1412       C  0.61043973  0.27486559  0.46892444    -0.01700
C1413       C  0.60529534  0.29083710  0.46390562     0.06900
C1414       C  0.60477287  0.30029842  0.47851690     0.05000
H1415       H  0.61294021  0.26413576  0.46083658     0.10100
H1416       H  0.60201997  0.31365161  0.47953689     0.08900
N1417       N  0.64333962  0.42699957  0.65120132    -0.25400
N1418       N  0.64905870  0.42006699  0.63709462    -0.33300
C1419       C  0.66280453  0.42853154  0.63184067     0.02900
C1420       C  0.66599923  0.44142097  0.64309073     0.08900
C1421       C  0.65348595  0.44012054  0.65528319    -0.04200
H1422       H  0.67033977  0.42508569  0.62097287     0.09600
H1423       H  0.65218941  0.44774523  0.66654872     0.10800
Cu1424     Cu  0.63941133  0.39834820  0.62608399     0.44200
Cu1425     Cu  0.62250332  0.41729775  0.66454731     0.42000
Cu1426     Cu  0.60673978  0.37678109  0.64813892     0.43900
N1427       N  0.62935479  0.37565707  0.61772925    -0.32800
N1428       N  0.61733840  0.36750341  0.62596364    -0.27100
C1429       C  0.61334955  0.35336562  0.61735657    -0.03200
C1430       C  0.62339145  0.35267626  0.60308733     0.09000
C1431       C  0.63338479  0.36695522  0.60369264     0.02800
H1432       H  0.60374113  0.34439965  0.62110648     0.10500
H1433       H  0.64277862  0.37082829  0.59455683     0.09600
N1434       N  0.59636337  0.38945697  0.66868513    -0.34300
N1435       N  0.60165904  0.40420417  0.67458558    -0.26500
C1436       C  0.59104315  0.40921371  0.68698449    -0.01700
C1437       C  0.57864670  0.39699144  0.68892315     0.06900
C1438       C  0.58240951  0.38473093  0.67714227     0.05000
H1439       H  0.59194168  0.42111360  0.69364901     0.10100
H1440       H  0.57511368  0.37350185  0.67439343     0.08900
N1441       N  0.51813193  0.37094820  0.26369625    -0.25400
N1442       N  0.53376911  0.36827375  0.25839332    -0.33300
C1443       C  0.54348007  0.36384710  0.27160305     0.02900
C1444       C  0.53358876  0.36368559  0.28592887     0.08900
C1445       C  0.51758271  0.36829858  0.28054824    -0.04200
H1446       H  0.55692154  0.36149179  0.27089883     0.09600
H1447       H  0.50650554  0.37008401  0.28834391     0.10800
Cu1448     Cu  0.54208586  0.37192921  0.23377948     0.44200
Cu1449     Cu  0.49859628  0.37897671  0.24762985     0.42000
Cu1450     Cu  0.51219212  0.38836132  0.20438123     0.43900
N1451       N  0.54824132  0.37739041  0.20887206    -0.32800
N1452       N  0.53720131  0.38358524  0.19798854    -0.27100
C1453       C  0.54483755  0.38567547  0.18292888    -0.03200
C1454       C  0.56144942  0.38056054  0.18449548     0.09000
C1455       C  0.56321583  0.37538927  0.20106275     0.02800
H1456       H  0.53871477  0.39043781  0.17168116     0.10500
H1457       H  0.57449466  0.37045603  0.20698965     0.09600
N1458       N  0.48744805  0.39067700  0.21285466    -0.34300
N1459       N  0.48226544  0.38711565  0.22835910    -0.26500
C1460       C  0.46530904  0.38893357  0.22897286    -0.01700
C1461       C  0.45971839  0.39393082  0.21315794     0.06900
C1462       C  0.47404153  0.39486198  0.20330105     0.05000
H1463       H  0.45760045  0.38629573  0.23994081     0.10100
H1464       H  0.47463054  0.39775450  0.18995864     0.08900
N1465       N  0.67235210  0.39752477  0.09933081    -0.25400
N1466       N  0.66616978  0.40309140  0.11384187    -0.33300
C1467       C  0.67502913  0.41669221  0.11885798     0.02900
C1468       C  0.68738377  0.41992141  0.10702262     0.08900
C1469       C  0.68534545  0.40759982  0.09474596    -0.04200
H1470       H  0.67212576  0.42418855  0.12991169     0.09600
H1471       H  0.69230460  0.40645729  0.08304389     0.10800
Cu1472     Cu  0.64463665  0.39367550  0.12549265     0.44200
Cu1473     Cu  0.66174462  0.37720535  0.08595151     0.42000
Cu1474     Cu  0.62117137  0.36262250  0.10253924     0.43900
N1475       N  0.62148113  0.38445117  0.13365926    -0.32800
N1476       N  0.61265322  0.37319502  0.12503603    -0.27100
C1477       C  0.59819489  0.36992508  0.13338591    -0.03200
C1478       C  0.59797926  0.37961306  0.14790449     0.09000
C1479       C  0.61289058  0.38866774  0.14772104     0.02800
H1480       H  0.58862421  0.36109829  0.12923281     0.10500
H1481       H  0.61718960  0.39764990  0.15708167     0.09600
N1482       N  0.63308589  0.35210119  0.08160854    -0.34300
N1483       N  0.64791078  0.35704091  0.07563391    -0.26500
C1484       C  0.65239345  0.34660362  0.06289652    -0.01700
C1485       C  0.63974267  0.33468792  0.06078794     0.06900
C1486       C  0.62777581  0.33852764  0.07285543     0.05000
H1487       H  0.66421473  0.34729788  0.05608190     0.10100
H1488       H  0.61633837  0.33154980  0.07555252     0.08900
N1489       N  0.76089845  0.48226530  0.36460134    -0.25400
N1490       N  0.75567525  0.46694234  0.36034562    -0.33300
C1491       C  0.76907734  0.45744475  0.35603527     0.02900
C1492       C  0.78345402  0.46712814  0.35762777     0.08900
C1493       C  0.77789443  0.48280210  0.36312740    -0.04200
H1494       H  0.76845008  0.44418883  0.35274528     0.09600
H1495       H  0.78564533  0.49356285  0.36643294     0.10800
Cu1496     Cu  0.73097049  0.45834959  0.36236749     0.44200
Cu1497     Cu  0.74455458  0.50125400  0.37341384     0.42000
Cu1498     Cu  0.70140988  0.48665882  0.38100642     0.43900
N1499       N  0.70625450  0.45141919  0.36776329    -0.32800
N1500       N  0.69534588  0.46189704  0.37483211    -0.27100
C1501       C  0.68058879  0.45378343  0.37718899    -0.03200
C1502       C  0.68236978  0.43743662  0.37134699     0.09000
C1503       C  0.69875718  0.43631456  0.36545669     0.02800
H1504       H  0.66946115  0.45934404  0.38284255     0.10500
H1505       H  0.70483939  0.42532603  0.36006495     0.09600
N1506       N  0.70943045  0.51132847  0.38492917    -0.34300
N1507       N  0.72491836  0.51693020  0.38200362    -0.26500
C1508       C  0.72516981  0.53380740  0.38460622    -0.01700
C1509       C  0.70912697  0.53888785  0.38944497     0.06900
C1510       C  0.69953013  0.52435740  0.38948352     0.05000
H1511       H  0.73602780  0.54183713  0.38251777     0.10100
H1512       H  0.68611705  0.52341089  0.39191603     0.08900
N1513       N  0.57163325  0.35237109  0.35418285    -0.25400
N1514       N  0.57806656  0.36682047  0.34872868    -0.33300
C1515       C  0.56955217  0.37192448  0.33496147     0.02900
C1516       C  0.55716071  0.36021276  0.33147576     0.08900
C1517       C  0.55880332  0.34790814  0.34383997    -0.04200
H1518       H  0.57269298  0.38298241  0.32756366     0.09600
H1519       H  0.55165200  0.33630668  0.34487725     0.10800
Cu1520     Cu  0.59947368  0.37832295  0.35849110     0.44200
Cu1521     Cu  0.58169263  0.33906453  0.37484715     0.42000
Cu1522     Cu  0.62241777  0.35552763  0.38972515     0.43900
N1523       N  0.62260001  0.38642887  0.36771906    -0.32800
N1524       N  0.63130161  0.37784042  0.37908515    -0.27100
C1525       C  0.64579322  0.38613282  0.38236964    -0.03200
C1526       C  0.64614735  0.40056943  0.37255221     0.09000
C1527       C  0.63129355  0.40039993  0.36342499     0.02800
H1528       H  0.65527573  0.38201123  0.39130031     0.10500
H1529       H  0.62709305  0.40971792  0.35435362     0.09600
N1530       N  0.60998778  0.33501800  0.40045381    -0.34300
N1531       N  0.59514098  0.32911793  0.39547475    -0.26500
C1532       C  0.59032599  0.31675551  0.40621949    -0.01700
C1533       C  0.60277997  0.31483204  0.41836762     0.06900
C1534       C  0.61497781  0.32659148  0.41433620     0.05000
H1535       H  0.57841885  0.31008508  0.40556163     0.10100
H1536       H  0.62635792  0.32932997  0.42138697     0.08900
N1537       N  0.98267832  0.88541393  0.72785244    -0.25400
N1538       N  0.98805956  0.88876859  0.71237071    -0.33300
C1539       C  0.97482229  0.89319107  0.70268642     0.02900
C1540       C  0.96040293  0.89263860  0.71243481     0.08900
C1541       C  0.96576022  0.88760691  0.72832180    -0.04200
H1542       H  0.97558502  0.89602997  0.68934140     0.09600
H1543       H  0.95791514  0.88524048  0.73925481     0.10800
Cu1544     Cu  0.01285173  0.88596869  0.70416997     0.44200
Cu1545     Cu  0.99872436  0.87716013  0.74731346     0.42000
Cu1546     Cu  0.04220954  0.86909467  0.73391658     0.43900
N1547       N  0.03786753  0.88082346  0.69807000    -0.32800
N1548       N  0.04869801  0.87443980  0.70905664    -0.27100
C1549       C  0.06375431  0.87233310  0.70142669    -0.03200
C1550       C  0.06225961  0.87763530  0.68487088     0.09000
C1551       C  0.04572429  0.88293635  0.68312826     0.02800
H1552       H  0.07492115  0.86730456  0.70748402     0.10500
H1553       H  0.03981531  0.88789595  0.67185135     0.09600
N1554       N  0.03363616  0.86602771  0.75853411    -0.34300
N1555       N  0.01801225  0.86909920  0.76366142    -0.26500
C1556       C  0.01731084  0.86690017  0.78057115    -0.01700
C1557       C  0.03320019  0.86216639  0.78618325     0.06900
C1558       C  0.04318562  0.86178501  0.77192410     0.05000
H1559       H  0.00622491  0.86910996  0.78824485     0.10100
H1560       H  0.05659837  0.85923160  0.77138177     0.08900
N1561       N  0.17164612  0.89843799  0.59847210    -0.25400
N1562       N  0.16562353  0.90359999  0.61320192    -0.33300
C1563       C  0.17418244  0.91739876  0.61822597     0.02900
C1564       C  0.18617475  0.92117783  0.60617299     0.08900
C1565       C  0.18422973  0.90897152  0.59376251    -0.04200
H1566       H  0.17137687  0.92457912  0.62951172     0.09600
H1567       H  0.19103190  0.90814777  0.58194204     0.10800
Cu1568     Cu  0.14477737  0.89318190  0.62531396     0.44200
Cu1569     Cu  0.16149245  0.87786818  0.58507430     0.42000
Cu1570     Cu  0.12186668  0.86170664  0.60248502     0.43900
N1571       N  0.12215178  0.88301138  0.63392651    -0.32800
N1572       N  0.11351222  0.87159972  0.62531902    -0.27100
C1573       C  0.09929230  0.86780615  0.63385192    -0.03200
C1574       C  0.09902805  0.87730760  0.64848922     0.09000
C1575       C  0.11366639  0.88680609  0.64817528     0.02800
H1576       H  0.08986961  0.85882422  0.62969159     0.10500
H1577       H  0.11779717  0.89588041  0.65752234     0.09600
N1578       N  0.13360278  0.85184626  0.58117132    -0.34300
N1579       N  0.14811394  0.85730437  0.57488571    -0.26500
C1580       C  0.15263221  0.84706776  0.56199053    -0.01700
C1581       C  0.14031867  0.83475351  0.56012256     0.06900
C1582       C  0.12852695  0.83815660  0.57247595     0.05000
H1583       H  0.16427189  0.84815739  0.55491987     0.10100
H1584       H  0.11740441  0.83078281  0.57542711     0.08900
N1585       N  0.50982607  0.11747998  0.22714385    -0.25400
N1586       N  0.50405029  0.11404835  0.21182272    -0.33300
C1587       C  0.51702171  0.10954180  0.20182166     0.02900
C1588       C  0.53169587  0.11014920  0.21117221     0.08900
C1589       C  0.52675168  0.11527166  0.22717388    -0.04200
H1590       H  0.51592774  0.10680308  0.18847845     0.09600
H1591       H  0.53489864  0.11783830  0.23783686     0.10800
Cu1592     Cu  0.47922522  0.11751152  0.20403881     0.44200
Cu1593     Cu  0.49431022  0.12624554  0.24685044     0.42000
Cu1594     Cu  0.45157656  0.13759137  0.23334913     0.43900
N1595       N  0.45458744  0.12421156  0.19796816    -0.32800
N1596       N  0.44443739  0.13193346  0.20874436    -0.27100
C1597       C  0.42941521  0.13465463  0.20124581    -0.03200
C1598       C  0.43021752  0.12833146  0.18500178     0.09000
C1599       C  0.44631765  0.12181752  0.18329721     0.02800
H1600       H  0.41868762  0.14063544  0.20723432     0.10500
H1601       H  0.45161774  0.11573829  0.17226608     0.09600
N1602       N  0.46015037  0.13955089  0.25807164    -0.34300
N1603       N  0.47543774  0.13518502  0.26327555    -0.26500
C1604       C  0.47603675  0.13676468  0.28026428    -0.01700
C1605       C  0.46044110  0.14245492  0.28584068     0.06900
C1606       C  0.45073338  0.14403062  0.27147784     0.05000
H1607       H  0.48680837  0.13347935  0.28799865     0.10100
H1608       H  0.43753341  0.14750894  0.27086040     0.08900
N1609       N  0.32072268  0.10823726  0.09810063    -0.25400
N1610       N  0.32651191  0.10290069  0.11286619    -0.33300
C1611       C  0.31777795  0.08913315  0.11764837     0.02900
C1612       C  0.30593745  0.08554575  0.10540024     0.08900
C1613       C  0.30812941  0.09783991  0.09312856    -0.04200
H1614       H  0.32042388  0.08178902  0.12886577     0.09600
H1615       H  0.30154896  0.09876796  0.08119159     0.10800
Cu1616     Cu  0.34735909  0.11284639  0.12539049     0.44200
Cu1617     Cu  0.33122635  0.12872042  0.08486735     0.42000
Cu1618     Cu  0.36997630  0.14511941  0.10366431     0.43900
N1619       N  0.36982261  0.12297938  0.13449906    -0.32800
N1620       N  0.37824464  0.13485341  0.12631889    -0.27100
C1621       C  0.39237134  0.13863981  0.13498601    -0.03200
C1622       C  0.39283859  0.12863846  0.14926548     0.09000
C1623       C  0.37839378  0.11884263  0.14860946     0.02800
H1624       H  0.40163433  0.14791416  0.13111856     0.10500
H1625       H  0.37446488  0.10934282  0.15761444     0.09600
N1626       N  0.35913782  0.15475997  0.08182783    -0.34300
N1627       N  0.34495496  0.14916660  0.07495225    -0.26500
C1628       C  0.34102555  0.15919975  0.06171242    -0.01700
C1629       C  0.35338901  0.17151957  0.06025563     0.06900
C1630       C  0.36458989  0.16833397  0.07319352     0.05000
H1631       H  0.32972723  0.15798581  0.05412865     0.10100
H1632       H  0.37554578  0.17577891  0.07656087     0.08900
N1633       N  0.26861820  0.98881247  0.38221147    -0.25400
N1634       N  0.28405534  0.99441072  0.38539807    -0.33300
C1635       C  0.29394593  0.98131879  0.38981633     0.02900
C1636       C  0.28438236  0.96676038  0.38942945     0.08900
C1637       C  0.26838320  0.97189114  0.38450680    -0.04200
H1638       H  0.30730851  0.98226805  0.39250796     0.09600
H1639       H  0.25753717  0.96388716  0.38226304     0.10800
Cu1640     Cu  0.29190854  0.01927577  0.38221715     0.44200
Cu1641     Cu  0.24895188  0.00462085  0.37397194     0.42000
Cu1642     Cu  0.26210495  0.04798761  0.36432107     0.43900
N1643       N  0.29787658  0.04418970  0.37643237    -0.32800
N1644       N  0.28691891  0.05477597  0.36959773    -0.27100
C1645       C  0.29448687  0.06984153  0.36723344    -0.03200
C1646       C  0.31096583  0.06859685  0.37284921     0.09000
C1647       C  0.31272258  0.05220759  0.37859255     0.02800
H1648       H  0.28841950  0.08086519  0.36189949     0.10500
H1649       H  0.32393410  0.04651853  0.38394188     0.09600
N1650       N  0.23744226  0.03923369  0.36208174    -0.34300
N1651       N  0.23241216  0.02370425  0.36578908    -0.26500
C1652       C  0.21544201  0.02295094  0.36414818    -0.01700
C1653       C  0.20968277  0.03870095  0.35911068     0.06900
C1654       C  0.22392225  0.04866096  0.35796805     0.05000
H1655       H  0.20784157  0.01194407  0.36695566     0.10100
H1656       H  0.22437604  0.06200370  0.35502021     0.08900
N1657       N  0.39845187  0.17715799  0.39478088    -0.25400
N1658       N  0.38358204  0.17136465  0.39981517    -0.33300
C1659       C  0.37855877  0.18004466  0.41353332     0.02900
C1660       C  0.39076226  0.19185828  0.41739928     0.08900
C1661       C  0.40325007  0.18969904  0.40532369    -0.04200
H1662       H  0.36718853  0.17739896  0.42063639     0.09600
H1663       H  0.41519921  0.19629017  0.40462713     0.10800
Cu1664     Cu  0.37123705  0.15060080  0.38946264     0.44200
Cu1665     Cu  0.41200226  0.16677216  0.37443623     0.42000
Cu1666     Cu  0.39395343  0.12754937  0.35817344     0.43900
N1667       N  0.36231724  0.12814866  0.37912358    -0.32800
N1668       N  0.37088421  0.11948886  0.36770358    -0.27100
C1669       C  0.36216196  0.10544872  0.36366527    -0.03200
C1670       C  0.34743646  0.10530908  0.37302041     0.09000
C1671       C  0.34790207  0.11983942  0.38269710     0.02800
H1672       H  0.36626400  0.09605226  0.35462804     0.10500
H1673       H  0.33854287  0.12401413  0.39173456     0.09600
N1674       N  0.41559511  0.13879616  0.34851671    -0.34300
N1675       N  0.42214419  0.15318883  0.35398966    -0.26500
C1676       C  0.43513390  0.15746849  0.34376962    -0.01700
C1677       C  0.43677398  0.14511296  0.33145494     0.06900
C1678       C  0.42420176  0.13355464  0.33484756     0.05000
H1679       H  0.44237596  0.16901228  0.34482397     0.10100
H1680       H  0.42099451  0.12252831  0.32743058     0.08900
N1681       N  0.23287515  0.52442445  0.63149907    -0.25400
N1682       N  0.23826849  0.54001976  0.63428601    -0.33300
C1683       C  0.22507377  0.54986103  0.63847475     0.02900
C1684       C  0.21065319  0.54010580  0.63835225     0.08900
C1685       C  0.21597079  0.52403684  0.63383371    -0.04200
H1686       H  0.22585655  0.56331084  0.64080574     0.09600
H1687       H  0.20810040  0.51303913  0.63185861     0.10800
Cu1688     Cu  0.26294668  0.54817396  0.63080012     0.44200
Cu1689     Cu  0.24890796  0.50478646  0.62356671     0.42000
Cu1690     Cu  0.29167342  0.51869722  0.61252563     0.43900
N1691       N  0.28768265  0.55441093  0.62475195    -0.32800
N1692       N  0.29828364  0.54357847  0.61774464    -0.27100
C1693       C  0.31329653  0.55124681  0.61542304    -0.03200
C1694       C  0.31198841  0.56765727  0.62125097     0.09000
C1695       C  0.29562706  0.56927295  0.62707027     0.02800
H1696       H  0.32435676  0.54526031  0.61008049     0.10500
H1697       H  0.28993818  0.58036559  0.63267447     0.09600
N1698       N  0.28339212  0.49382094  0.61084643    -0.34300
N1699       N  0.26812074  0.48849587  0.61513510    -0.26500
C1700       C  0.26772261  0.47147509  0.61378083    -0.01700
C1701       C  0.28342721  0.46599399  0.60831308     0.06900
C1702       C  0.29299415  0.48045141  0.60662896     0.05000
H1703       H  0.25699880  0.46366285  0.61705277     0.10100
H1704       H  0.30621421  0.48116939  0.60324821     0.08900
N1705       N  0.42087609  0.65405195  0.64511434    -0.25400
N1706       N  0.41509541  0.63906190  0.64980591    -0.33300
C1707       C  0.42375893  0.63374390  0.66342523     0.02900
C1708       C  0.43555273  0.64588420  0.66757765     0.08900
C1709       C  0.43338596  0.65863909  0.65577742    -0.04200
H1710       H  0.42112155  0.62220800  0.67026882     0.09600
H1711       H  0.43996524  0.67061195  0.65534261     0.10800
Cu1712     Cu  0.39430551  0.62704496  0.63912248     0.44200
Cu1713     Cu  0.41051472  0.66798129  0.62502633     0.42000
Cu1714     Cu  0.37062441  0.65118841  0.60920285     0.43900
N1715       N  0.37156813  0.61873521  0.62890809    -0.32800
N1716       N  0.36264335  0.62786181  0.61814158    -0.27100
C1717       C  0.34849928  0.61935605  0.61403805    -0.03200
C1718       C  0.34857589  0.60418241  0.62264928     0.09000
C1719       C  0.36333171  0.60415731  0.63196827     0.02800
H1720       H  0.33893382  0.62386634  0.60538714     0.10500
H1721       H  0.36773705  0.59433000  0.64038084     0.09600
N1722       N  0.38239263  0.67248740  0.59942916    -0.34300
N1723       N  0.39706563  0.67852821  0.60471492    -0.26500
C1724       C  0.40177188  0.69122541  0.59431754    -0.01700
C1725       C  0.38940673  0.69321259  0.58208063     0.06900
C1726       C  0.37738945  0.68114288  0.58570101     0.05000
H1727       H  0.41362298  0.69797414  0.59516306     0.10100
H1728       H  0.36624030  0.67823440  0.57835485     0.08900
N1729       N  0.36398966  0.26692470  0.52008261    -0.25400
N1730       N  0.35958544  0.26124973  0.53518690    -0.33300
C1731       C  0.35478152  0.27431744  0.54491081     0.02900
C1732       C  0.35620065  0.28896412  0.53561052     0.08900
C1733       C  0.36212657  0.28390588  0.51991821    -0.04200
H1734       H  0.35127284  0.27329107  0.55807780     0.09600
H1735       H  0.36542553  0.29199064  0.50940692     0.10800
Cu1736     Cu  0.36215846  0.23642151  0.54321604     0.44200
Cu1737     Cu  0.37336917  0.25103389  0.50097363     0.42000
Cu1738     Cu  0.38339103  0.20809990  0.51554755     0.43900
N1739       N  0.36844232  0.21193850  0.55018801    -0.32800
N1740       N  0.37665174  0.20151201  0.54005677    -0.27100
C1741       C  0.37917310  0.18675422  0.54815174    -0.03200
C1742       C  0.37221453  0.18804315  0.56410920     0.09000
C1743       C  0.36552305  0.20413656  0.56501675     0.02800
H1744       H  0.38553519  0.17590832  0.54279540     0.10500
H1745       H  0.35906999  0.20978907  0.57565319     0.09600
N1746       N  0.38606053  0.21626368  0.49072716    -0.34300
N1747       N  0.38217519  0.23157192  0.48517492    -0.26500
C1748       C  0.38385752  0.23176799  0.46819140    -0.01700
C1749       C  0.38910276  0.21589545  0.46296688     0.06900
C1750       C  0.39033295  0.20644098  0.47753791     0.05000
H1751       H  0.38083430  0.24244214  0.46021113     0.10100
H1752       H  0.39332258  0.19313005  0.47843321     0.08900
N1753       N  0.39250493  0.10200263  0.67401315    -0.25400
N1754       N  0.39801718  0.11642590  0.66754937    -0.33300
C1755       C  0.41204538  0.12128589  0.67579720     0.02900
C1756       C  0.41565553  0.10944720  0.68803845     0.08900
C1757       C  0.40307618  0.09732839  0.68658683    -0.04200
H1758       H  0.41947081  0.13231673  0.67262582     0.09600
H1759       H  0.40199347  0.08573590  0.69374469     0.10800
Cu1760     Cu  0.38779602  0.12843152  0.64658100     0.44200
Cu1761     Cu  0.37129654  0.08902650  0.66450421     0.42000
Cu1762     Cu  0.35521099  0.10655121  0.62479227     0.43900
N1763       N  0.37758066  0.13717970  0.62406221    -0.32800
N1764       N  0.36567147  0.12889226  0.61580619    -0.27100
C1765       C  0.36177141  0.13745493  0.60163229    -0.03200
C1766       C  0.37173645  0.15177633  0.60100024     0.09000
C1767       C  0.38161651  0.15124292  0.61537297     0.02800
H1768       H  0.35236559  0.13355927  0.59251964     0.10500
H1769       H  0.39105886  0.16034480  0.61921719     0.09600
N1770       N  0.34462520  0.08590549  0.63708909    -0.34300
N1771       N  0.35002388  0.07956447  0.65160214    -0.26500
C1772       C  0.33932172  0.06713504  0.65639014    -0.01700
C1773       C  0.32676473  0.06565160  0.64425875     0.06900
C1774       C  0.33052879  0.07772735  0.63229169     0.05000
H1775       H  0.34033745  0.06005935  0.66803484     0.10100
H1776       H  0.32320871  0.08078568  0.62116628     0.08900
N1777       N  0.47590407  0.36955606  0.76346256    -0.25400
N1778       N  0.46058193  0.36558111  0.75806026    -0.33300
C1779       C  0.45102581  0.36086412  0.77127853     0.02900
C1780       C  0.46067606  0.36188827  0.78572595     0.08900
C1781       C  0.47638864  0.36749063  0.78039990    -0.04200
H1782       H  0.43775935  0.35768059  0.77050375     0.09600
H1783       H  0.48714276  0.37045940  0.78828622     0.10800
Cu1784     Cu  0.45215919  0.36849478  0.73340117     0.44200
Cu1785     Cu  0.49492544  0.37875100  0.74739309     0.42000
Cu1786     Cu  0.48040816  0.38836868  0.70449218     0.43900
N1787       N  0.44530462  0.37455311  0.70882993    -0.32800
N1788       N  0.45567326  0.38213728  0.69816329    -0.27100
C1789       C  0.44761103  0.38453207  0.68337058    -0.03200
C1790       C  0.43142786  0.37815728  0.68489061     0.09000
C1791       C  0.43035857  0.37193238  0.70115147     0.02800
H1792       H  0.45314461  0.39040450  0.67234298     0.10500
H1793       H  0.41954477  0.36595304  0.70698570     0.09600
N1794       N  0.50519853  0.39142366  0.71267740    -0.34300
N1795       N  0.51071580  0.38773046  0.72803477    -0.26500
C1796       C  0.52765052  0.38981493  0.72837309    -0.01700
C1797       C  0.53289185  0.39512636  0.71253690     0.06900
C1798       C  0.51837199  0.39596851  0.70295359     0.05000
H1799       H  0.53560244  0.38703136  0.73912801     0.10100
H1800       H  0.51751851  0.39891103  0.68963673     0.08900
N1801       N  0.32144344  0.39738619  0.59887868    -0.25400
N1802       N  0.32738282  0.40251365  0.61365461    -0.33300
C1803       C  0.31884581  0.41633427  0.61863609     0.02900
C1804       C  0.30696516  0.42017833  0.60650497     0.08900
C1805       C  0.30894019  0.40797850  0.59409254    -0.04200
H1806       H  0.32164224  0.42352376  0.62991814     0.09600
H1807       H  0.30225173  0.40722669  0.58220330     0.10800
Cu1808     Cu  0.34822219  0.39221051  0.62584417     0.44200
Cu1809     Cu  0.33166213  0.37684502  0.58549362     0.42000
Cu1810     Cu  0.37107468  0.36058613  0.60339553     0.43900
N1811       N  0.37096159  0.38236032  0.63449128    -0.32800
N1812       N  0.37957011  0.37082476  0.62602499    -0.27100
C1813       C  0.39391211  0.36730144  0.63446485    -0.03200
C1814       C  0.39429616  0.37712222  0.64888866     0.09000
C1815       C  0.37959259  0.38652087  0.64855005     0.02800
H1816       H  0.40335469  0.35831236  0.63036787     0.10500
H1817       H  0.37552516  0.39578519  0.65773752     0.09600
N1818       N  0.35953681  0.35075593  0.58195764    -0.34300
N1819       N  0.34514628  0.35628093  0.57545766    -0.26500
C1820       C  0.34084804  0.34615282  0.56240301    -0.01700
C1821       C  0.35317743  0.33384000  0.56066154     0.06900
C1822       C  0.36474818  0.33712687  0.57324965     0.05000
H1823       H  0.32936492  0.34734385  0.55509846     0.10100
H1824       H  0.37584446  0.32975543  0.57629785     0.08900
N1825       N  0.13059563  0.76712445  0.52042377    -0.25400
N1826       N  0.13469653  0.76171578  0.53571346    -0.33300
C1827       C  0.13923474  0.77496565  0.54532333     0.02900
C1828       C  0.13796335  0.78945323  0.53575521     0.08900
C1829       C  0.13240045  0.78410890  0.52002569    -0.04200
H1830       H  0.14245085  0.77417296  0.55858061     0.09600
H1831       H  0.12928175  0.79200853  0.50932166     0.10800
Cu1832     Cu  0.13202688  0.73702153  0.54413559     0.44200
Cu1833     Cu  0.12152740  0.75096761  0.50135189     0.42000
Cu1834     Cu  0.11040384  0.70876139  0.51666095     0.43900
N1835       N  0.12542181  0.71266241  0.55125603    -0.32800
N1836       N  0.11704253  0.70230846  0.54118997    -0.27100
C1837       C  0.11432002  0.68762481  0.54933817    -0.03200
C1838       C  0.12131929  0.68888160  0.56526795     0.09000
C1839       C  0.12825711  0.70487463  0.56610770     0.02800
H1840       H  0.10781750  0.67684149  0.54402273     0.10500
H1841       H  0.13483190  0.71046074  0.57670397     0.09600
N1842       N  0.10798644  0.71638994  0.49168918    -0.34300
N1843       N  0.11235080  0.73143910  0.48580720    -0.26500
C1844       C  0.11065939  0.73130144  0.46881896    -0.01700
C1845       C  0.10489529  0.71548157  0.46395746     0.06900
C1846       C  0.10338374  0.70640858  0.47873715     0.05000
H1847       H  0.11395604  0.74171027  0.46059966     0.10100
H1848       H  0.09993334  0.69323418  0.47994586     0.08900
N1849       N  0.14206732  0.57782856  0.64926986    -0.25400
N1850       N  0.14750812  0.58455913  0.63495520    -0.33300
C1851       C  0.16145510  0.57633272  0.62983333     0.02900
C1852       C  0.16505452  0.56381935  0.64139114     0.08900
C1853       C  0.15257979  0.56509578  0.65361498    -0.04200
H1854       H  0.16885094  0.57971370  0.61885043     0.09600
H1855       H  0.15155518  0.55773765  0.66508285     0.10800
Cu1856     Cu  0.13731738  0.60589499  0.62362714     0.44200
Cu1857     Cu  0.12117296  0.58731176  0.66264815     0.42000
Cu1858     Cu  0.10598362  0.62816422  0.64709920     0.43900
N1859       N  0.12742203  0.62887480  0.61580221    -0.32800
N1860       N  0.11607182  0.63732463  0.62466526    -0.27100
C1861       C  0.11226515  0.65175131  0.61648150    -0.03200
C1862       C  0.12170827  0.65233028  0.60181754     0.09000
C1863       C  0.13117339  0.63767692  0.60174527     0.02800
H1864       H  0.10320657  0.66102042  0.62081649     0.10500
H1865       H  0.14009189  0.63367725  0.59219680     0.09600
N1866       N  0.09542839  0.61534157  0.66743393    -0.34300
N1867       N  0.10047846  0.60037829  0.67297649    -0.26500
C1868       C  0.08979952  0.59525671  0.68527101    -0.01700
C1869       C  0.07762214  0.60764174  0.68752468     0.06900
C1870       C  0.08157260  0.62011243  0.67602673     0.05000
H1871       H  0.09052903  0.58320676  0.69167971     0.10100
H1872       H  0.07447905  0.63153582  0.67356983     0.08900
N1873       N  0.86258298  0.76691206  0.02025565    -0.25400
N1874       N  0.85849568  0.76123697  0.03545049    -0.33300
C1875       C  0.85377985  0.77429060  0.04523616     0.02900
C1876       C  0.85492681  0.78892446  0.03588013     0.08900
C1877       C  0.86059652  0.78387708  0.02009418    -0.04200
H1878       H  0.85052485  0.77326874  0.05846877     0.09600
H1879       H  0.86365527  0.79196487  0.00951310     0.10800
Cu1880     Cu  0.86133902  0.73644550  0.04348369     0.44200
Cu1881     Cu  0.87176001  0.75110077  0.00097638     0.42000
Cu1882     Cu  0.88174448  0.70809667  0.01527699     0.43900
N1883       N  0.86764690  0.71192175  0.05025805    -0.32800
N1884       N  0.87549950  0.70144800  0.03989692    -0.27100
C1885       C  0.87813161  0.68666094  0.04790590    -0.03200
C1886       C  0.87162659  0.68799240  0.06405177     0.09000
C1887       C  0.86508119  0.70412993  0.06515357     0.02800
H1888       H  0.88428616  0.67578195  0.04237665     0.10500
H1889       H  0.85897406  0.70982293  0.07597115     0.09600
N1890       N  0.88437425  0.71639117  0.99050027    -0.34300
N1891       N  0.88052458  0.73173557  0.98502559    -0.26500
C1892       C  0.88229734  0.73203388  0.96804797    -0.01700
C1893       C  0.88756449  0.71618421  0.96275750     0.06900
C1894       C  0.88871222  0.70664797  0.97727790     0.05000
H1895       H  0.87936099  0.74277015  0.96011850     0.10100
H1896       H  0.89173726  0.69334151  0.97811679     0.08900
N1897       N  0.85018848  0.57969567  0.15167976    -0.25400
N1898       N  0.84514018  0.58571474  0.13691324    -0.33300
C1899       C  0.83140145  0.57714791  0.13177366     0.02900
C1900       C  0.82752920  0.56515494  0.14379259     0.08900
C1901       C  0.83962919  0.56709640  0.15630456    -0.04200
H1902       H  0.82434271  0.57992801  0.12040918     0.09600
H1903       H  0.84038523  0.56025577  0.16810857     0.10800
Cu1904     Cu  0.85562997  0.60653442  0.12485442     0.44200
Cu1905     Cu  0.87071365  0.58987065  0.16510570     0.42000
Cu1906     Cu  0.88681422  0.62967316  0.14757241     0.43900
N1907       N  0.86572013  0.62911358  0.11607041    -0.32800
N1908       N  0.87705297  0.63787901  0.12464322    -0.27100
C1909       C  0.88093569  0.65196905  0.11592337    -0.03200
C1910       C  0.87156454  0.65200377  0.10120136     0.09000
C1911       C  0.86205283  0.63737860  0.10166529     0.02800
H1912       H  0.88993553  0.66142107  0.11997956     0.10500
H1913       H  0.85310485  0.63307321  0.09227978     0.09600
N1914       N  0.89678958  0.61779855  0.16874110    -0.34300
N1915       N  0.89138433  0.60325984  0.17503432    -0.26500
C1916       C  0.90183747  0.59860740  0.18769424    -0.01700
C1917       C  0.91423649  0.61085056  0.18939359     0.06900
C1918       C  0.91065820  0.62275314  0.17720128     0.05000
H1919       H  0.90086179  0.58689588  0.19467204     0.10100
H1920       H  0.91805790  0.63383385  0.17414506     0.08900
N1921       N  0.72630078  0.48809027  0.11568991    -0.25400
N1922       N  0.71092619  0.49322281  0.11154859    -0.33300
C1923       C  0.70149431  0.47976472  0.10725494     0.02900
C1924       C  0.71127652  0.46544023  0.10872870     0.08900
C1925       C  0.72693713  0.47108996  0.11415859    -0.04200
H1926       H  0.68822373  0.48031537  0.10404538     0.09600
H1927       H  0.73776542  0.46339565  0.11735863     0.10800
Cu1928     Cu  0.70218859  0.51786219  0.11376355     0.44200
Cu1929     Cu  0.74521510  0.50458811  0.12441973     0.42000
Cu1930     Cu  0.72974264  0.54690226  0.13439700     0.43900
N1931       N  0.69496614  0.54232548  0.11989595    -0.32800
N1932       N  0.70507497  0.55295980  0.12786737    -0.27100
C1933       C  0.69682106  0.56760965  0.13043826    -0.03200
C1934       C  0.68077802  0.56604710  0.12377345     0.09000
C1935       C  0.67997982  0.54990248  0.11718145     0.02800
H1936       H  0.70212463  0.57856207  0.13666210     0.10500
H1937       H  0.66930833  0.54405850  0.11096206     0.09600
N1938       N  0.75472873  0.53944387  0.13724612    -0.34300
N1939       N  0.76066373  0.52429947  0.13331483    -0.26500
C1940       C  0.77761830  0.52444769  0.13529137    -0.01700
C1941       C  0.78240892  0.54037988  0.14079411     0.06900
C1942       C  0.76761854  0.54950861  0.14185118     0.05000
H1943       H  0.78586966  0.51394704  0.13239042     0.10100
H1944       H  0.76636949  0.56274705  0.14503141     0.08900
N1945       N  0.59728575  0.67763328  0.10426004    -0.25400
N1946       N  0.61136812  0.67068473  0.09850578    -0.33300
C1947       C  0.61654764  0.67912635  0.08470808     0.02900
C1948       C  0.60527036  0.69201516  0.08155591     0.08900
C1949       C  0.59314980  0.69072830  0.09412169    -0.04200
H1950       H  0.62736241  0.67565998  0.07710725     0.09600
H1951       H  0.58187171  0.69832755  0.09544623     0.10800
Cu1952     Cu  0.62229795  0.64891022  0.10820032     0.44200
Cu1953     Cu  0.58389059  0.66796215  0.12501772     0.42000
Cu1954     Cu  0.59900614  0.62680319  0.13990651     0.43900
N1955       N  0.63003228  0.62587134  0.11803799    -0.32800
N1956       N  0.62129162  0.61751323  0.12955373    -0.27100
C1957       C  0.62948203  0.60307479  0.13332001    -0.03200
C1958       C  0.64401329  0.60239339  0.12367363     0.09000
C1959       C  0.64400375  0.61699990  0.11414034     0.02800
H1960       H  0.62524948  0.59387256  0.14249465     0.10500
H1961       H  0.65345830  0.62093747  0.10509512     0.09600
N1962       N  0.57871554  0.63973318  0.15047110    -0.34300
N1963       N  0.57334510  0.65478360  0.14549270    -0.26500
C1964       C  0.56103670  0.65995917  0.15611847    -0.01700
C1965       C  0.55857982  0.64752680  0.16819566     0.06900
C1966       C  0.56998193  0.63496101  0.16424377     0.05000
H1967       H  0.55477575  0.67208964  0.15543988     0.10100
H1968       H  0.57229173  0.62348108  0.17129556     0.08900
N1969       N  0.48243777  0.62041943  0.26979740    -0.25400
N1970       N  0.48783547  0.61628932  0.28507689    -0.33300
C1971       C  0.47463936  0.61140203  0.29457247     0.02900
C1972       C  0.46019141  0.61246541  0.28493470     0.08900
C1973       C  0.46550316  0.61828311  0.26928227    -0.04200
H1974       H  0.47543023  0.60805167  0.30779701     0.09600
H1975       H  0.45761103  0.62131173  0.25854982     0.10800
Cu1976     Cu  0.51244122  0.61926065  0.29356107     0.44200
Cu1977     Cu  0.49862650  0.62983528  0.25094888     0.42000
Cu1978     Cu  0.54106127  0.64070426  0.26625995     0.43900
N1979       N  0.53673409  0.62579325  0.30086971    -0.32800
N1980       N  0.54726658  0.63405489  0.29089195    -0.27100
C1981       C  0.56189419  0.63661396  0.29919502    -0.03200
C1982       C  0.56039550  0.62963097  0.31512448     0.09000
C1983       C  0.54433065  0.62287888  0.31579722     0.02800
H1984       H  0.57281446  0.64295600  0.29397470     0.10500
H1985       H  0.53858202  0.61632134  0.32631797     0.09600
N1986       N  0.53328891  0.64327152  0.24130675    -0.34300
N1987       N  0.51818018  0.63904073  0.23548865    -0.26500
C1988       C  0.51825512  0.64069546  0.21850284    -0.01700
C1989       C  0.53408753  0.64629143  0.21355110     0.06900
C1990       C  0.54324431  0.64775301  0.22828852     0.05000
H1991       H  0.50781398  0.63738814  0.21033541     0.10100
H1992       H  0.55647072  0.65099765  0.22941288     0.08900
N1993       N  0.67035342  0.60689623  0.40030365    -0.25400
N1994       N  0.66333830  0.60102584  0.38629605    -0.33300
C1995       C  0.67170954  0.58713439  0.38123321     0.02900
C1996       C  0.68460876  0.58403507  0.39250741     0.08900
C1997       C  0.68341546  0.59674018  0.40449821    -0.04200
H1998       H  0.66822237  0.57946843  0.37046830     0.09600
H1999       H  0.69108125  0.59817429  0.41571547     0.10800
Cu2000     Cu  0.64168846  0.61080350  0.37514008     0.44200
Cu2001     Cu  0.66090911  0.62788551  0.41354323     0.42000
Cu2002     Cu  0.62024429  0.64326173  0.39780400     0.43900
N2003       N  0.61911984  0.62132826  0.36687340    -0.32800
N2004       N  0.61104746  0.63320635  0.37539365    -0.27100
C2005       C  0.59700869  0.63759869  0.36685297    -0.03200
C2006       C  0.59627027  0.62798361  0.35230764     0.09000
C2007       C  0.61043443  0.61780182  0.35268307     0.02800
H2008       H  0.58814144  0.64720181  0.37084345     0.10500
H2009       H  0.61422869  0.60861680  0.34330140     0.09600
N2010       N  0.63296069  0.65369663  0.41823644    -0.34300
N2011       N  0.64786681  0.64859085  0.42385399    -0.26500
C2012       C  0.65296355  0.65926204  0.43616727    -0.01700
C2013       C  0.64061352  0.67148556  0.43835076     0.06900
C2014       C  0.62819757  0.66757612  0.42679577     0.05000
H2015       H  0.66499362  0.65852387  0.44259938     0.10100
H2016       H  0.61684681  0.67474399  0.42423932     0.08900
N2017       N  0.22528120  0.48927738  0.38290009    -0.25400
N2018       N  0.20999624  0.49495326  0.38661805    -0.33300
C2019       C  0.20021765  0.48195376  0.39149824     0.02900
C2020       C  0.20968760  0.46735892  0.39085302     0.08900
C2021       C  0.22552086  0.47236976  0.38529682    -0.04200
H2022       H  0.18693725  0.48297027  0.39455183     0.09600
H2023       H  0.23620265  0.46428365  0.38260836     0.10800
Cu2024     Cu  0.20198951  0.51967121  0.38318047     0.44200
Cu2025     Cu  0.24459514  0.50500492  0.37370353     0.42000
Cu2026     Cu  0.23058983  0.54795969  0.36300426     0.43900
N2027       N  0.19541041  0.54419153  0.37668406    -0.32800
N2028       N  0.20588397  0.55464581  0.36894982    -0.27100
C2029       C  0.19796589  0.56949229  0.36634722    -0.03200
C2030       C  0.18177183  0.56821090  0.37275147     0.09000
C2031       C  0.18054738  0.55205027  0.37920096     0.02800
H2032       H  0.20361363  0.58040141  0.36035555     0.10500
H2033       H  0.16969207  0.54641226  0.38529172     0.09600
N2034       N  0.25537218  0.53950608  0.36074793    -0.34300
N2035       N  0.26070432  0.52417625  0.36485053    -0.26500
C2036       C  0.27769090  0.52372822  0.36325029    -0.01700
C2037       C  0.28315312  0.53946067  0.35782728     0.06900
C2038       C  0.26871421  0.54909449  0.35641436     0.05000
H2039       H  0.28550786  0.51297204  0.36640676     0.10100
H2040       H  0.26800786  0.56236505  0.35320415     0.08900
N2041       N  0.09395413  0.67599396  0.39633926    -0.25400
N2042       N  0.10881618  0.67005720  0.40120327    -0.33300
C2043       C  0.11408619  0.67868054  0.41486205     0.02900
C2044       C  0.10205363  0.69062334  0.41886105     0.08900
C2045       C  0.08940154  0.68858845  0.40693024    -0.04200
H2046       H  0.12555423  0.67597621  0.42178066     0.09600
H2047       H  0.07755160  0.69536245  0.40631447     0.10800
Cu2048     Cu  0.12086249  0.64930207  0.39053552     0.44200
Cu2049     Cu  0.08027542  0.66576088  0.37602147     0.42000
Cu2050     Cu  0.09767487  0.62605092  0.35975223     0.43900
N2051       N  0.12964269  0.62685155  0.38012375    -0.32800
N2052       N  0.12089184  0.61805777  0.36894917    -0.27100
C2053       C  0.12967058  0.60410127  0.36474377    -0.03200
C2054       C  0.14462497  0.60417833  0.37373060     0.09000
C2055       C  0.14423192  0.61872926  0.38336457     0.02800
H2056       H  0.12549587  0.59466562  0.35578059     0.10500
H2057       H  0.15379158  0.62308102  0.39210303     0.09600
N2058       N  0.07634913  0.63782172  0.35004004    -0.34300
N2059       N  0.07010801  0.65236627  0.35548159    -0.26500
C2060       C  0.05742814  0.65705992  0.34507193    -0.01700
C2061       C  0.05566495  0.64483135  0.33266469     0.06900
C2062       C  0.06783623  0.63289786  0.33619680     0.05000
H2063       H  0.05053502  0.66882243  0.34603503     0.10100
H2064       H  0.07090377  0.62186659  0.32872790     0.08900
N2065       N  0.38097396  0.73148306  0.51350699    -0.25400
N2066       N  0.38476957  0.71600483  0.50838870    -0.33300
C2067       C  0.38889471  0.70650926  0.52185544     0.02900
C2068       C  0.38767851  0.71637163  0.53615506     0.08900
C2069       C  0.38257596  0.73213520  0.53048646    -0.04200
H2070       H  0.39189948  0.69318226  0.52132097     0.09600
H2071       H  0.37969417  0.74307693  0.53815300     0.10800
Cu2072     Cu  0.38264748  0.70738068  0.48368049     0.44200
Cu2073     Cu  0.37271878  0.75060347  0.49704759     0.42000
Cu2074     Cu  0.36480417  0.73598134  0.45388924     0.43900
N2075       N  0.37744067  0.70051190  0.45888574    -0.32800
N2076       N  0.37062014  0.71105908  0.44788445    -0.27100
C2077       C  0.36840574  0.70295265  0.43308582    -0.03200
C2078       C  0.37409734  0.68654526  0.43493557     0.09000
C2079       C  0.37974214  0.68539402  0.45140907     0.02800
H2080       H  0.36301388  0.70857605  0.42186128     0.10500
H2081       H  0.38501433  0.67438139  0.45755004     0.09600
N2082       N  0.36138336  0.76079312  0.46188511    -0.34300
N2083       N  0.36443124  0.76636536  0.47736400    -0.26500
C2084       C  0.36196589  0.78326238  0.47765187    -0.01700
C2085       C  0.35707738  0.78840718  0.46164740     0.06900
C2086       C  0.35688569  0.77388296  0.45202582     0.05000
H2087       H  0.36407434  0.79124638  0.48854043     0.10100
H2088       H  0.35427148  0.77296127  0.43864550     0.08900
N2089       N  0.35180956  0.57733044  0.34821456    -0.25400
N2090       N  0.34683947  0.58319646  0.36308017    -0.33300
C2091       C  0.33302419  0.57467965  0.36811223     0.02900
C2092       C  0.32901917  0.56289599  0.35592683     0.08900
C2093       C  0.34111923  0.56490396  0.34343152    -0.04200
H2094       H  0.32595875  0.57741419  0.37948516     0.09600
H2095       H  0.34174460  0.55828291  0.33149433     0.10800
Cu2096     Cu  0.35740084  0.60384702  0.37545304     0.44200
Cu2097     Cu  0.37230379  0.58745858  0.33466494     0.42000
Cu2098     Cu  0.38939766  0.62617012  0.35311756     0.43900
N2099       N  0.36789616  0.62623352  0.38438040    -0.32800
N2100       N  0.37962458  0.63460670  0.37594944    -0.27100
C2101       C  0.38364156  0.64873542  0.38453641    -0.03200
C2102       C  0.37394883  0.64924446  0.39903363     0.09000
C2103       C  0.36409757  0.63482487  0.39857649     0.02800
H2104       H  0.39286123  0.65796911  0.38047236     0.10500
H2105       H  0.35476782  0.63093615  0.40777066     0.09600
N2106       N  0.39873226  0.61499452  0.33129701    -0.34300
N2107       N  0.39291629  0.60083124  0.32454392    -0.26500
C2108       C  0.40280856  0.59670404  0.31124982    -0.01700
C2109       C  0.41526412  0.60892260  0.30963430     0.06900
C2110       C  0.41230186  0.62023222  0.32253478     0.05000
H2111       H  0.40137754  0.58539699  0.30370554     0.10100
H2112       H  0.41987174  0.63114805  0.32576216     0.08900
N2113       N  0.11377542  0.23139433  0.51282097    -0.25400
N2114       N  0.11054965  0.21585634  0.50752044    -0.33300
C2115       C  0.10592444  0.20625748  0.52074590     0.02900
C2116       C  0.10620894  0.21612067  0.53509283     0.08900
C2117       C  0.11129341  0.23199444  0.52969833    -0.04200
H2118       H  0.10320662  0.19287600  0.52004582     0.09600
H2119       H  0.11356480  0.24298037  0.53750527     0.10800
Cu2120     Cu  0.11403651  0.20745045  0.48293762     0.44200
Cu2121     Cu  0.12244408  0.25058992  0.49666448     0.42000
Cu2122     Cu  0.13244453  0.23635446  0.45365490     0.43900
N2123       N  0.11996094  0.20080029  0.45829025    -0.32800
N2124       N  0.12693745  0.21142191  0.44745674    -0.27100
C2125       C  0.12922295  0.20344912  0.43259645    -0.03200
C2126       C  0.12341564  0.18706312  0.43425982     0.09000
C2127       C  0.11763710  0.18577745  0.45066053     0.02800
H2128       H  0.13458838  0.20919164  0.42141825     0.10500
H2129       H  0.11209435  0.17478736  0.45660293     0.09600
N2130       N  0.13501236  0.26115310  0.46196944    -0.34300
N2131       N  0.13118828  0.26655143  0.47734074    -0.26500
C2132       C  0.13306540  0.28351436  0.47777386    -0.01700
C2133       C  0.13837722  0.28889223  0.46199004     0.06900
C2134       C  0.13943772  0.27443278  0.45233201     0.05000
H2135       H  0.13017510  0.29138189  0.48856711     0.10100
H2136       H  0.14248303  0.27367850  0.43903194     0.08900
N2137       N  0.14116447  0.07634807  0.34914602    -0.25400
N2138       N  0.14599766  0.08206843  0.36410335    -0.33300
C2139       C  0.15958723  0.07331825  0.36931907     0.02900
C2140       C  0.16359101  0.06152786  0.35714484     0.08900
C2141       C  0.15172566  0.06377872  0.34446914    -0.04200
H2142       H  0.16660949  0.07600571  0.38072953     0.09600
H2143       H  0.15126154  0.05731349  0.33243987     0.10800
Cu2144     Cu  0.13590580  0.10313814  0.37603265     0.44200
Cu2145     Cu  0.12122182  0.08709710  0.33531118     0.42000
Cu2146     Cu  0.10615546  0.12732035  0.35229210     0.43900
N2147       N  0.12677660  0.12635078  0.38415253    -0.32800
N2148       N  0.11602108  0.13546380  0.37520470    -0.27100
C2149       C  0.11286562  0.15000805  0.38345204    -0.03200
C2150       C  0.12211437  0.14998702  0.39824382     0.09000
C2151       C  0.13079009  0.13484599  0.39833201     0.02800
H2152       H  0.10449568  0.15984585  0.37898913     0.10500
H2153       H  0.13946817  0.13038139  0.40789422     0.09600
N2154       N  0.09609564  0.11572158  0.33100309    -0.34300
N2155       N  0.10116429  0.10100136  0.32486510    -0.26500
C2156       C  0.09081121  0.09661317  0.31202554    -0.01700
C2157       C  0.07882403  0.10922468  0.31004233     0.06900
C2158       C  0.08254297  0.12106210  0.32226701     0.05000
H2159       H  0.09155470  0.08484265  0.30511719     0.10100
H2160       H  0.07543249  0.13237623  0.32514735     0.08900
N2161       N  0.01881698  0.36889052  0.23611597    -0.25400
N2162       N  0.03413125  0.36554228  0.24196462    -0.33300
C2163       C  0.04413052  0.36080231  0.22906895     0.02900
C2164       C  0.03478418  0.36115021  0.21437757     0.08900
C2165       C  0.01879114  0.36638006  0.21922966    -0.04200
H2166       H  0.05745859  0.35801962  0.23022064     0.09600
H2167       H  0.00812374  0.36878136  0.21103929     0.10800
Cu2168     Cu  0.04185458  0.36918304  0.26681978     0.44200
Cu2169     Cu  0.99905296  0.37790533  0.25142995     0.42000
Cu2170     Cu  0.01232580  0.38946349  0.29408704     0.43900
N2171       N  0.04760587  0.37577098  0.29159858    -0.32800
N2172       N  0.03670603  0.38351761  0.30159598    -0.27100
C2173       C  0.04397446  0.38623512  0.31672572    -0.03200
C2174       C  0.06021250  0.37990153  0.31616562     0.09000
C2175       C  0.06215042  0.37336593  0.30009189     0.02800
H2176       H  0.03785946  0.39230306  0.32733350     0.10500
H2177       H  0.07327525  0.36733173  0.29494082     0.09600
N2178       N  0.98776022  0.39181134  0.28530047    -0.34300
N2179       N  0.98258110  0.38730264  0.27004839    -0.26500
C2180       C  0.96560894  0.38902778  0.26937209    -0.01700
C2181       C  0.96004000  0.39497761  0.28487987     0.06900
C2182       C  0.97437789  0.39654847  0.29461007     0.05000
H2183       H  0.95787165  0.38559877  0.25864641     0.10100
H2184       H  0.97497683  0.40009767  0.30779361     0.08900
N2185       N  0.17029968  0.39970892  0.40164458    -0.25400
N2186       N  0.16307892  0.40603491  0.38794982    -0.33300
C2187       C  0.17155392  0.41990736  0.38303479     0.02900
C2188       C  0.18474621  0.42252358  0.39407902     0.08900
C2189       C  0.18361922  0.40955090  0.40579074    -0.04200
H2190       H  0.16796299  0.42787512  0.37252752     0.09600
H2191       H  0.19151970  0.40771343  0.41678374     0.10800
Cu2192     Cu  0.14109325  0.39685510  0.37702669     0.44200
Cu2193     Cu  0.16072600  0.37854781  0.41448617     0.42000
Cu2194     Cu  0.11949252  0.36403915  0.39900825     0.43900
N2195       N  0.11833343  0.38686728  0.36872099    -0.32800
N2196       N  0.11018287  0.37484066  0.37695346    -0.27100
C2197       C  0.09609406  0.37079051  0.36831352    -0.03200
C2198       C  0.09542218  0.38078982  0.35401630     0.09000
C2199       C  0.10966939  0.39083221  0.35464056     0.02800
H2200       H  0.08719299  0.36110362  0.37201710     0.10500
H2201       H  0.11358452  0.40015837  0.34545004     0.09600
N2202       N  0.13240660  0.35306787  0.41907882    -0.34300
N2203       N  0.14746625  0.35787903  0.42455981    -0.26500
C2204       C  0.15258388  0.34697438  0.43664971    -0.01700
C2205       C  0.14010147  0.33489924  0.43884541     0.06900
C2206       C  0.12757258  0.33913584  0.42752262     0.05000
H2207       H  0.16470731  0.34746844  0.44292851     0.10100
H2208       H  0.11607683  0.33217006  0.42505219     0.08900
N2209       N  0.86307346  0.23976707  0.47682344    -0.25400
N2210       N  0.85993786  0.24534912  0.46137518    -0.33300
C2211       C  0.85514782  0.23231676  0.45158541     0.02900
C2212       C  0.85524474  0.21781479  0.46123363     0.08900
C2213       C  0.86037905  0.22291227  0.47717362    -0.04200
H2214       H  0.85254320  0.23322939  0.43820241     0.09600
H2215       H  0.86262800  0.21490211  0.48801318     0.10800
Cu2216     Cu  0.86398737  0.26999320  0.45332385     0.44200
Cu2217     Cu  0.87208453  0.25543307  0.49622266     0.42000
Cu2218     Cu  0.88317557  0.29836571  0.48274745     0.43900
N2219       N  0.87047993  0.29465364  0.44714709    -0.32800
N2220       N  0.87775352  0.30511209  0.45794800    -0.27100
C2221       C  0.88026811  0.32011114  0.45030326    -0.03200
C2222       C  0.87429094  0.31895011  0.43394718     0.09000
C2223       C  0.86818434  0.30268309  0.43233204     0.02800
H2224       H  0.88585441  0.33106689  0.45626837     0.10500
H2225       H  0.86239478  0.29711829  0.42127612     0.09600
N2226       N  0.88544177  0.28961274  0.50741632    -0.34300
N2227       N  0.88123601  0.27423780  0.51252580    -0.26500
C2228       C  0.88309129  0.27343005  0.52946400    -0.01700
C2229       C  0.88879623  0.28897435  0.53513385     0.06900
C2230       C  0.89008979  0.29889147  0.52087174     0.05000
H2231       H  0.87995071  0.26254967  0.53711517     0.10100
H2232       H  0.89348407  0.31212632  0.52037206     0.08900
N2233       N  0.89245475  0.40524952  0.32411272    -0.25400
N2234       N  0.89804507  0.39080286  0.33042714    -0.33300
C2235       C  0.91159173  0.38567959  0.32156080     0.02900
C2236       C  0.91475954  0.39737704  0.30905600     0.08900
C2237       C  0.90245956  0.40968951  0.31101629    -0.04200
H2238       H  0.91905574  0.37461540  0.32451288     0.09600
H2239       H  0.90125380  0.42129293  0.30389592     0.10800
Cu2240     Cu  0.88854062  0.37927448  0.35197676     0.44200
Cu2241     Cu  0.87209082  0.41860817  0.33463080     0.42000
Cu2242     Cu  0.85677649  0.40164493  0.37494808     0.43900
N2243       N  0.87885191  0.37073053  0.37479253    -0.32800
N2244       N  0.86725882  0.37908776  0.38343139    -0.27100
C2245       C  0.86366204  0.37044717  0.39764450    -0.03200
C2246       C  0.87350196  0.35602455  0.39789223     0.09000
C2247       C  0.88297737  0.35656809  0.38326173     0.02800
H2248       H  0.85453052  0.37434615  0.40703146     0.10500
H2249       H  0.89218029  0.34737762  0.37906524     0.09600
N2250       N  0.84652337  0.42266302  0.36294932    -0.34300
N2251       N  0.85171152  0.42875309  0.34825278    -0.26500
C2252       C  0.84126857  0.44142833  0.34361805    -0.01700
C2253       C  0.82909246  0.44337280  0.35603244     0.06900
C2254       C  0.83278696  0.43128525  0.36802176     0.05000
H2255       H  0.84210093  0.44825801  0.33181263     0.10100
H2256       H  0.82556322  0.42843089  0.37926513     0.08900
N2257       N  0.01129954  0.11942585  0.27029066    -0.25400
N2258       N  0.00579973  0.11577905  0.28566306    -0.33300
C2259       C  0.01896208  0.11130630  0.29541453     0.02900
C2260       C  0.03347712  0.11214622  0.28584506     0.08900
C2261       C  0.02824552  0.11738205  0.26997221    -0.04200
H2262       H  0.01809044  0.10835311  0.30872829     0.09600
H2263       H  0.03619701  0.12006839  0.25919108     0.10800
Cu2264     Cu  0.98104613  0.11867913  0.29384083     0.44200
Cu2265     Cu  0.99532482  0.12808760  0.25091324     0.42000
Cu2266     Cu  0.95237083  0.13801868  0.26515527     0.43900
N2267       N  0.95638493  0.12469575  0.30043406    -0.32800
N2268       N  0.94579959  0.13211996  0.28987559    -0.27100
C2269       C  0.93091977  0.13457126  0.29775333    -0.03200
C2270       C  0.93229349  0.12839710  0.31402243     0.09000
C2271       C  0.94856156  0.12223276  0.31533331     0.02800
H2272       H  0.91993635  0.14034971  0.29203873     0.10500
H2273       H  0.95430453  0.11641383  0.32628096     0.09600
N2274       N  0.96061904  0.14055904  0.24036093    -0.34300
N2275       N  0.97596102  0.13671504  0.23490166    -0.26500
C2276       C  0.97627479  0.13847854  0.21792432    -0.01700
C2277       C  0.96043718  0.14373616  0.21261930     0.06900
C2278       C  0.95088974  0.14488637  0.22713022     0.05000
H2279       H  0.98701978  0.13555948  0.21000599     0.10100
H2280       H  0.93759212  0.14791988  0.22795911     0.08900
N2281       N  0.82397379  0.10588690  0.40162082    -0.25400
N2282       N  0.83073818  0.10000644  0.38749223    -0.33300
C2283       C  0.82260915  0.08582523  0.38286355     0.02900
C2284       C  0.81013154  0.08253409  0.39454517     0.08900
C2285       C  0.81131602  0.09543715  0.40633147    -0.04200
H2286       H  0.82590231  0.07818237  0.37202158     0.09600
H2287       H  0.80384000  0.09689949  0.41767359     0.10800
Cu2288     Cu  0.85159957  0.11032397  0.37535475     0.44200
Cu2289     Cu  0.83303414  0.12752212  0.41408887     0.42000
Cu2290     Cu  0.87202753  0.14466089  0.39589407     0.43900
N2291       N  0.87350215  0.12135794  0.36601525    -0.32800
N2292       N  0.88119987  0.13399466  0.37375213    -0.27100
C2293       C  0.89500417  0.13838655  0.36483358    -0.03200
C2294       C  0.89598383  0.12797928  0.35085526     0.09000
C2295       C  0.88219930  0.11732930  0.35196127     0.02800
H2296       H  0.90362481  0.14842599  0.36825257     0.10500
H2297       H  0.87873885  0.10739864  0.34323195     0.09600
N2298       N  0.85978341  0.15487515  0.41672936    -0.34300
N2299       N  0.84553330  0.14907261  0.42330410    -0.26500
C2300       C  0.84071021  0.15955278  0.43589205    -0.01700
C2301       C  0.85255509  0.17238209  0.43723554     0.06900
C2302       C  0.86438520  0.16902582  0.42492147     0.05000
H2303       H  0.82923565  0.15818542  0.44318108     0.10100
H2304       H  0.87527568  0.17664298  0.42173133     0.08900
C2305       C  0.91943574  0.12832419  0.32693824    -0.11400
C2306       C  0.90872538  0.12819187  0.33782658    -0.13000
C2307       C  0.85303232  0.20081448  0.45491075    -0.11400
C2308       C  0.85210699  0.18732888  0.44773382    -0.13000
C2309       C  0.87405956  0.33208571  0.42131717    -0.11400
C2310       C  0.87378614  0.34304220  0.41067844    -0.13000
C2311       C  0.94290767  0.39674824  0.29096330    -0.11400
C2312       C  0.92947110  0.39760315  0.29822982    -0.13000
C2313       C  0.08289227  0.38036833  0.34079868    -0.11400
C2314       C  0.07254173  0.38010173  0.32957618    -0.13000
C2315       C  0.05050287  0.11018297  0.29218472    -0.11400
C2316       C  0.06394220  0.10919317  0.29943696    -0.13000
C2317       C  0.14005231  0.30601023  0.45581247    -0.11400
C2318       C  0.14067730  0.31964905  0.44889524    -0.13000
C2319       C  0.12270266  0.16310020  0.41087684    -0.11400
C2320       C  0.12311620  0.17407203  0.42149075    -0.13000
C2321       C  0.37399405  0.67332875  0.42235969    -0.11400
C2322       C  0.37393020  0.66229096  0.41178466    -0.13000
C2323       C  0.19575345  0.43710314  0.39417451    -0.11400
C2324       C  0.20321918  0.45041746  0.39308533    -0.13000
C2325       C  0.30028423  0.54564495  0.35625347    -0.11400
C2326       C  0.31387750  0.55265332  0.35556270    -0.13000
C2327       C  0.16885093  0.58106070  0.37290466    -0.11400
C2328       C  0.15784974  0.59165118  0.37322120    -0.13000
C2329       C  0.44315468  0.61024991  0.29116617    -0.11400
C2330       C  0.42982326  0.60903576  0.29858599    -0.13000
C2331       C  0.58359526  0.62869587  0.33924610    -0.11400
C2332       C  0.57302838  0.62920431  0.32823856    -0.13000
C2333       C  0.54815728  0.64818032  0.18319444    -0.11400
C2334       C  0.54083071  0.64771214  0.19662364    -0.13000
C2335       C  0.65675431  0.58937307  0.12375482    -0.11400
C2336       C  0.66762744  0.57865211  0.12375350    -0.13000
C2337       C  0.79927439  0.54714084  0.14282967    -0.11400
C2338       C  0.81263428  0.55454812  0.14386287    -0.13000
C2339       C  0.87168809  0.67525278  0.07708370    -0.11400
C2340       C  0.87166907  0.66465115  0.08807993    -0.13000
C2341       C  0.10304632  0.70870315  0.44707902    -0.11400
C2342       C  0.10206797  0.70125408  0.43373866    -0.13000
C2343       C  0.12142895  0.67612341  0.57826460    -0.11400
C2344       C  0.12153300  0.66534209  0.58907444    -0.13000
C2345       C  0.41838931  0.37791305  0.67215527    -0.11400
C2346       C  0.40740417  0.37759305  0.66154608    -0.13000
C2347       C  0.35424542  0.30591118  0.54218087    -0.11400
C2348       C  0.35321218  0.31920222  0.54970973    -0.13000
C2349       C  0.37200085  0.17527486  0.57711697    -0.11400
C2350       C  0.37185364  0.16457193  0.58801720    -0.13000
C2351       C  0.38989712  0.70349494  0.56698626    -0.11400
C2352       C  0.38924951  0.71041324  0.55335356    -0.13000
C2353       C  0.19359518  0.54631682  0.64043234    -0.11400
C2354       C  0.18007402  0.55341037  0.64146140    -0.13000
C2355       C  0.28962635  0.44885945  0.60678049    -0.11400
C2356       C  0.29666644  0.43527918  0.60610140    -0.13000
C2357       C  0.32505164  0.58035806  0.62161323    -0.11400
C2358       C  0.33585106  0.59115001  0.62206771    -0.13000
C2359       C  0.39057995  0.20944333  0.44593010    -0.11400
C2360       C  0.39117946  0.20225631  0.43242844    -0.13000
C2361       C  0.19244843  0.04454580  0.35750787    -0.11400
C2362       C  0.17877009  0.05136604  0.35679739    -0.13000
C2363       C  0.33444760  0.09251148  0.37289928    -0.11400
C2364       C  0.32367760  0.08167117  0.37283244    -0.13000
C2365       C  0.44733085  0.14521085  0.31653655    -0.11400
C2366       C  0.45440688  0.14426808  0.30299766    -0.13000
C2367       C  0.40586772  0.12836170  0.16200238    -0.11400
C2368       C  0.41694124  0.12831186  0.17251960    -0.13000
C2369       C  0.14053932  0.81994551  0.54939851    -0.11400
C2370       C  0.13970839  0.80652112  0.54207951    -0.13000
C2371       C  0.08608438  0.87742608  0.66132029    -0.11400
C2372       C  0.07522143  0.87753464  0.67205777    -0.13000
C2373       C  0.80058954  0.46095908  0.35623569    -0.11400
C2374       C  0.81411080  0.45382248  0.35566122    -0.13000
C2375       C  0.69535794  0.56925604  0.39258268    -0.11400
C2376       C  0.70270142  0.55586388  0.39157775    -0.13000
C2377       C  0.66982310  0.42423354  0.37169668    -0.11400
C2378       C  0.65913467  0.41333500  0.37209458    -0.13000
C2379       C  0.70521509  0.44826371  0.10723102    -0.11400
C2380       C  0.69804765  0.43475444  0.10659093    -0.13000
C2381       C  0.53962570  0.36126700  0.30299858    -0.11400
C2382       C  0.54666359  0.36008251  0.31653036    -0.13000
C2383       C  0.58500499  0.38004443  0.16069144    -0.11400
C2384       C  0.57421677  0.38034388  0.17149654    -0.13000
C2385       C  0.56353331  0.39759380  0.69919080    -0.11400
C2386       C  0.54995988  0.39691572  0.70623604    -0.13000
C2387       C  0.60333100  0.29732845  0.44693594    -0.11400
C2388       C  0.60247587  0.30450603  0.43344531    -0.13000
C2389       C  0.62319998  0.34001558  0.58998673    -0.11400
C2390       C  0.62318323  0.32957952  0.57883669    -0.13000
C2391       C  0.42887010  0.39641866  0.20036840    -0.11400
C2392       C  0.44253929  0.39568738  0.20720026    -0.13000
C2393       C  0.35477883  0.19965535  0.04216634    -0.11400
C2394       C  0.35360258  0.18622968  0.04941941    -0.13000
C2395       C  0.37213619  0.33020698  0.07884484    -0.11400
C2396       C  0.37164705  0.34065670  0.08996340    -0.13000
C2397       C  0.04869294  0.35787218  0.18405167    -0.11400
C2398       C  0.04138979  0.35890737  0.19747057    -0.13000
C2399       C  0.29916847  0.45932702  0.14244232    -0.11400
C2400       C  0.31255322  0.45203135  0.14369060    -0.13000
C2401       C  0.16756029  0.42675279  0.12194068    -0.11400
C2402       C  0.15668122  0.41604021  0.12230764    -0.13000
C2403       C  0.10469378  0.29537040  0.05329912    -0.11400
C2404       C  0.10386500  0.30260771  0.06675194    -0.13000
C2405       C  0.12246944  0.33022727  0.92204927    -0.11400
C2406       C  0.12211023  0.34106717  0.91128191    -0.13000
C2407       C  0.44706579  0.35902947  0.81615845    -0.11400
C2408       C  0.45442797  0.35995729  0.80277991    -0.13000
C2409       C  0.39067675  0.29693987  0.94679632    -0.11400
C2410       C  0.39141964  0.30395514  0.93320914    -0.13000
C2411       C  0.19249794  0.46013666  0.85771181    -0.11400
C2412       C  0.17899111  0.45297011  0.85690590    -0.13000
C2413       C  0.33392757  0.41243771  0.87235265    -0.11400
C2414       C  0.32329967  0.42341190  0.87231440    -0.13000
C2415       C  0.05006794  0.39584829  0.79236552    -0.11400
C2416       C  0.06338432  0.39643801  0.79988474    -0.13000
C2417       C  0.90886694  0.37900783  0.83835492    -0.11400
C2418       C  0.91953151  0.37924614  0.82742382    -0.13000
C2419       C  0.89006920  0.70255920  0.93224835    -0.11400
C2420       C  0.88924408  0.70981235  0.94570561    -0.13000
C2421       C  0.79703268  0.43604107  0.89177419    -0.11400
C2422       C  0.78992643  0.44953889  0.89048059    -0.13000
C2423       C  0.82449677  0.58102867  0.87170794    -0.11400
C2424       C  0.83531042  0.59182479  0.87211141    -0.13000
C2425       C  0.04916112  0.60780594  0.70522381    -0.11400
C2426       C  0.06260123  0.60709963  0.69793015    -0.13000
C2427       C  0.95500797  0.64545547  0.80317259    -0.11400
C2428       C  0.94775318  0.64637569  0.81661952    -0.13000
C2429       C  0.91776477  0.62810360  0.67308460    -0.11400
C2430       C  0.90676294  0.62826597  0.66250125    -0.13000
C2431       C  0.89068296  0.29475639  0.55235337    -0.11400
C2432       C  0.89146187  0.30149235  0.56606515    -0.13000
C2433       C  0.94635445  0.35773052  0.68295584    -0.11400
C2434       C  0.95367971  0.35883954  0.69634219    -0.13000
C2435       C  0.69425362  0.45930436  0.64165117    -0.11400
C2436       C  0.68079074  0.45214724  0.64295564    -0.13000
C2437       C  0.79094070  0.55500406  0.60527015    -0.11400
C2438       C  0.79800570  0.56856832  0.60461170    -0.13000
C2439       C  0.82491052  0.42314198  0.62245261    -0.11400
C2440       C  0.83551778  0.41216195  0.62293176    -0.13000
C2441       C  0.67904592  0.55243626  0.85641135    -0.11400
C2442       C  0.69272631  0.54559763  0.85687182    -0.13000
C2443       C  0.60617439  0.71000004  0.05333415    -0.11400
C2444       C  0.60523563  0.70273775  0.06676710    -0.13000
C2445       C  0.62319883  0.67444187  0.92240975    -0.11400
C2446       C  0.62270492  0.66345280  0.91181265    -0.13000
C2447       C  0.37346053  0.83172962  0.92239896    -0.11400
C2448       C  0.37341718  0.84260056  0.91166112    -0.13000
C2449       C  0.29810503  0.56843437  0.89408244    -0.11400
C2450       C  0.29083409  0.55498029  0.89312521    -0.13000
C2451       C  0.35380822  0.70010518  0.95591931    -0.11400
C2452       C  0.35286104  0.68658688  0.94877629    -0.13000
C2453       C  0.44599499  0.64598158  0.68259057    -0.11400
C2454       C  0.45325240  0.64519533  0.69604970    -0.13000
C2455       C  0.54961757  0.61038851  0.79331823    -0.11400
C2456       C  0.56297076  0.60944156  0.80075003    -0.13000
C2457       C  0.41856477  0.62819734  0.82713234    -0.11400
C2458       C  0.40781832  0.62814184  0.83797706    -0.13000
C2459       C  0.64083050  0.81973436  0.94897539    -0.11400
C2460       C  0.64019190  0.80621111  0.95612956    -0.13000
C2461       C  0.44345283  0.89582074  0.79171140    -0.11400
C2462       C  0.43002214  0.89653780  0.79901084    -0.13000
C2463       C  0.57390009  0.87929730  0.82820661    -0.11400
C2464       C  0.58448646  0.87929799  0.83921374    -0.13000
C2465       C  0.54798687  0.85813426  0.68324785    -0.11400
C2466       C  0.54084952  0.85901421  0.69676481    -0.13000
C2467       C  0.66806963  0.92546476  0.62247139    -0.11400
C2468       C  0.65714319  0.91479714  0.62274636    -0.13000
C2469       C  0.79213986  0.05428450  0.39377968    -0.11400
C2470       C  0.79948793  0.06767457  0.39483875    -0.13000
C2471       C  0.82409851  0.92288577  0.37123051    -0.11400
C2472       C  0.83458119  0.91178353  0.37147196    -0.13000
C2473       C  0.67999536  0.95420273  0.35505619    -0.11400
C2474       C  0.69361160  0.96114458  0.35583000    -0.13000
C2475       C  0.64122497  0.68661692  0.44858248    -0.11400
C2476       C  0.64057497  0.70020682  0.45559910    -0.13000
C2477       C  0.60501671  0.79600304  0.55236063    -0.11400
C2478       C  0.60389328  0.80293128  0.56596396    -0.13000
C2479       C  0.62366800  0.83198647  0.42133954    -0.11400
C2480       C  0.62337514  0.84287225  0.41062017    -0.13000
C2481       C  0.81293951  0.95151138  0.64314893    -0.11400
C2482       C  0.79954049  0.95882960  0.64205756    -0.13000
C2483       C  0.92971910  0.89589296  0.69940482    -0.11400
C2484       C  0.94331382  0.89484022  0.70634990    -0.13000
C2485       C  0.85494075  0.69883169  0.54218170    -0.11400
C2486       C  0.85391187  0.68544600  0.54952372    -0.13000
C2487       C  0.89080549  0.79557316  0.44643472    -0.11400
C2488       C  0.89138195  0.80271135  0.43291617    -0.13000
C2489       C  0.87257614  0.84031194  0.58900241    -0.11400
C2490       C  0.87313078  0.82966255  0.57807205    -0.13000
C2491       C  0.85208825  0.81916228  0.04998315    -0.11400
C2492       C  0.85302513  0.80587029  0.04245189    -0.13000
C2493       C  0.94748618  0.85772127  0.31626640    -0.11400
C2494       C  0.95476035  0.85877843  0.30285198    -0.13000
C2495       C  0.91688327  0.87722598  0.17289736    -0.11400
C2496       C  0.90575118  0.87681378  0.16245500    -0.13000
C2497       C  0.95409172  0.14539290  0.19556088    -0.11400
C2498       C  0.94688591  0.14615997  0.18208064    -0.13000
C2499       C  0.78898566  0.94876240  0.10695272    -0.11400
C2500       C  0.79577919  0.93506427  0.10635838    -0.13000
C2501       C  0.83612190  0.09115407  0.12288077    -0.11400
C2502       C  0.82536805  0.08031929  0.12244284    -0.13000
C2503       C  0.64046318  0.18559532  0.54833980    -0.11400
C2504       C  0.63952650  0.19913152  0.54124513    -0.13000
C2505       C  0.69731332  0.07018921  0.60584043    -0.11400
C2506       C  0.70435037  0.05661512  0.60667938    -0.13000
C2507       C  0.44425879  0.11000702  0.70550466    -0.11400
C2508       C  0.43072417  0.10913023  0.69839698    -0.13000
C2509       C  0.57552668  0.12934609  0.67146197    -0.11400
C2510       C  0.58639397  0.12920505  0.66071332    -0.13000
C2511       C  0.54667341  0.14641317  0.81627799    -0.11400
C2512       C  0.53973471  0.14572229  0.80264990    -0.13000
C2513       C  0.70413971  0.94970078  0.89191279    -0.11400
C2514       C  0.69675078  0.93633393  0.89297655    -0.13000
C2515       C  0.66796041  0.08001359  0.87408036    -0.11400
C2516       C  0.65697276  0.09062226  0.87443280    -0.13000
C2517       C  0.68068530  0.05361065  0.14335677    -0.11400
C2518       C  0.69415207  0.04642713  0.14228957    -0.13000
C2519       C  0.54863428  0.10830166  0.20454821    -0.11400
C2520       C  0.56209550  0.10753863  0.19729878    -0.13000
C2521       C  0.63900234  0.30655028  0.04256177    -0.11400
C2522       C  0.63977503  0.31989110  0.05004072    -0.13000
C2523       C  0.60182946  0.20130472  0.93395052    -0.11400
C2524       C  0.60276724  0.20868308  0.94733808    -0.13000
C2525       C  0.62368414  0.16571340  0.08961670    -0.11400
C2526       C  0.62370167  0.17634189  0.07865797    -0.13000
C2527       C  0.19722770  0.57108699  0.10727041    -0.11400
C2528       C  0.20445486  0.55760998  0.10781224    -0.13000
C2529       C  0.03855894  0.64488967  0.30389833    -0.11400
C2530       C  0.04546613  0.64541170  0.31753333    -0.13000
C2531       C  0.94281348  0.61101481  0.20683624    -0.11400
C2532       C  0.92928007  0.61040838  0.19973532    -0.13000
C2533       C  0.07423493  0.62822249  0.17265474    -0.11400
C2534       C  0.08507816  0.62817868  0.16188667    -0.13000
C2535       C  0.14098375  0.18517967  0.95055875    -0.11400
C2536       C  0.14033271  0.19881634  0.95748835    -0.13000
C2537       C  0.07413968  0.12833424  0.82885459    -0.11400
C2538       C  0.08466266  0.12810062  0.83992025    -0.13000
C2539       C  0.79966048  0.04679038  0.85547732    -0.11400
C2540       C  0.81321580  0.05388360  0.85486516    -0.13000
C2541       C  0.93019541  0.11036265  0.80001949    -0.11400
C2542       C  0.94361650  0.11140791  0.79272690    -0.13000
C2543       C  0.85419709  0.30617328  0.95577184    -0.11400
C2544       C  0.85325980  0.31968475  0.94861854    -0.13000
C2545       C  0.88784586  0.21128559  0.05430996    -0.11400
C2546       C  0.88872430  0.20429329  0.06789327    -0.13000
C2547       C  0.87229683  0.16299980  0.91263864    -0.11400
C2548       C  0.87207638  0.17393119  0.92331841    -0.13000
C2549       C  0.38794003  0.79564868  0.05375484    -0.11400
C2550       C  0.38872059  0.80267737  0.06733163    -0.13000
C2551       C  0.28855251  0.05691899  0.10530231    -0.11400
C2552       C  0.29557345  0.07050862  0.10472864    -0.13000
C2553       C  0.32386383  0.92541735  0.12329220    -0.11400
C2554       C  0.33450120  0.91446803  0.12388128    -0.13000
C2555       C  0.35474063  0.80542288  0.45536204    -0.11400
C2556       C  0.35358234  0.81895064  0.44827890    -0.13000
C2557       C  0.29072231  0.94974979  0.39165002    -0.11400
C2558       C  0.29788798  0.93626090  0.39274931    -0.13000
C2559       C  0.55094589  0.89569758  0.29158613    -0.11400
C2560       C  0.56435393  0.89670071  0.29889290    -0.13000
C2561       C  0.45318032  0.85973836  0.19641814    -0.11400
C2562       C  0.44559338  0.85900774  0.18314498    -0.13000
C2563       C  0.42003769  0.87791140  0.32753173    -0.11400
C2564       C  0.40923696  0.87803756  0.33833510    -0.13000
C2565       C  0.17971484  0.95285727  0.14301419    -0.11400
C2566       C  0.19299924  0.96036041  0.14192061    -0.13000
C2567       C  0.04896020  0.89671722  0.20527043    -0.11400
C2568       C  0.06243678  0.89758999  0.19806090    -0.13000
C2569       C  0.13870179  0.68475607  0.04907460    -0.11400
C2570       C  0.13802578  0.69817664  0.04174925    -0.13000
C2571       C  0.12426858  0.82863365  0.07909052    -0.11400
C2572       C  0.12417874  0.83910785  0.09020681    -0.13000
C2573       C  0.03908114  0.86017644  0.80336454    -0.11400
C2574       C  0.04591615  0.85928884  0.81702375    -0.13000
C2575       C  0.10353453  0.79673217  0.94712842    -0.11400
C2576       C  0.10246006  0.80387059  0.93363620    -0.13000
C2577       C  0.31332680  0.95189344  0.85516408    -0.11400
C2578       C  0.29977020  0.95896862  0.85593310    -0.13000
C2579       C  0.20337693  0.05542661  0.89191831    -0.11400
C2580       C  0.19613691  0.06887003  0.89308315    -0.13000
C2581       C  0.16819249  0.92456349  0.87270261    -0.11400
C2582       C  0.15727742  0.91389761  0.87316711    -0.13000
C2583       C  0.04086755  0.14790230  0.69733497    -0.11400
C2584       C  0.04801644  0.14862983  0.68381586    -0.13000
C2585       C  0.10389590  0.21007639  0.55218028    -0.11400
C2586       C  0.10275993  0.20299798  0.56570084    -0.13000
C2587       C  0.31172746  0.05522218  0.64452078    -0.11400
C2588       C  0.29827771  0.04795345  0.64352704    -0.13000
C2589       C  0.20389826  0.94964158  0.60660106    -0.11400
C2590       C  0.19667370  0.93615461  0.60587754    -0.13000
C2591       C  0.15577518  0.09051011  0.62235068    -0.11400
C2592       C  0.16676440  0.07990665  0.62228857    -0.13000
loop_ 
_geom_bond_atom_site_label_1 
_geom_bond_atom_site_label_2 
_geom_bond_distance 
_geom_bond_site_symmetry_2 
_ccdc_geom_bond_type 
N1            N2   1.325       .  A
N1            C5   1.352       .  A
N1           Cu9   2.107   1_565  S
N2            C3   1.345       .  A
N2           Cu8   2.076   1_565  S
C3            C4   1.378       .  A
C3            H6   1.082       .  S
C4            C5   1.388       .  A
C4         C2589   1.448       .  S
C5            H7   1.082       .  S
Cu8          N11   2.076       .  S
Cu9          N19   2.107       .  S
Cu10         N12   2.078       .  S
Cu10         N18   2.079       .  S
N11          N12   1.322       .  A
N11          C15   1.347       .  A
N12          C13   1.347       .  A
C13          C14   1.382       .  A
C13          H16   1.082       .  S
C14          C15   1.382       .  A
C14        C2592   1.442       .  S
C15          H17   1.082       .  S
N18          N19   1.325       .  A
N18          C22   1.345       .  A
N19          C20   1.352       .  A
C20          C21   1.387       .  A
C20          H23   1.082       .  S
C21          C22   1.379       .  A
C21        C2588   1.449       .  S
C22          H24   1.082       .  S
N25          N26   1.325       .  A
N25          C29   1.352       .  A
N25         Cu33   2.105       .  S
N26          C27   1.345       .  A
N26         Cu32   2.080       .  S
C27          C28   1.379       .  A
C27          H30   1.082       .  S
C28          C29   1.387       .  A
C28        C2584   1.448       .  S
C29          H31   1.082       .  S
Cu32         N35   2.080       .  S
Cu33         N43   2.105       .  S
Cu34         N36   2.073       .  S
Cu34         N42   2.074       .  S
N35          N36   1.322       .  A
N35          C39   1.347       .  A
N36          C37   1.346       .  A
C37          C38   1.381       .  A
C37          H40   1.082       .  S
C38          C39   1.382       .  A
C38        C2591   1.442       .  S
C39          H41   1.082       .  S
N42          N43   1.324       .  A
N42          C46   1.344       .  A
N43          C44   1.352       .  A
C44          C45   1.387       .  A
C44          H47   1.082       .  S
C45          C46   1.378       .  A
C45        C2586   1.447       .  S
C46          H48   1.082       .  S
N49          N50   1.324       .  A
N49          C53   1.352       .  A
N49         Cu57   2.105       .  S
N50          C51   1.345       .  A
N50         Cu56   2.075   1_545  S
C51          C52   1.378       .  A
C51          H54   1.082       .  S
C52          C53   1.387       .  A
C52        C2579   1.448       .  S
C53          H55   1.082       .  S
Cu56         N59   2.074       .  S
Cu57         N67   2.106   1_545  S
Cu58         N60   2.079       .  S
Cu58         N66   2.080       .  S
N59          N60   1.322       .  A
N59          C63   1.346       .  A
N60          C61   1.347       .  A
C61          C62   1.382       .  A
C61          H64   1.082       .  S
C62          C63   1.381       .  A
C62        C2581   1.442       .  S
C63          H65   1.082       .  S
N66          N67   1.325       .  A
N66          C70   1.345       .  A
N67          C68   1.352       .  A
C68          C69   1.387       .  A
C68          H71   1.082       .  S
C69          C70   1.379       .  A
C69        C2578   1.448       .  S
C70          H72   1.082       .  S
N73          N74   1.325       .  A
N73          C77   1.352       .  A
N73         Cu81   2.103       .  S
N74          C75   1.344       .  A
N74         Cu80   2.075       .  S
C75          C76   1.378       .  A
C75          H78   1.082       .  S
C76          C77   1.387       .  A
C76        C2574   1.447       .  S
C77          H79   1.082       .  S
Cu80         N83   2.075       .  S
Cu81         N91   2.103       .  S
Cu82         N84   2.077       .  S
Cu82         N90   2.077       .  S
N83          N84   1.322       .  A
N83          C87   1.347       .  A
N84          C85   1.347       .  A
C85          C86   1.382       .  A
C85          H88   1.082       .  S
C86          C87   1.381       .  A
C86        C2582   1.442       .  S
C87          H89   1.082       .  S
N90          N91   1.325       .  A
N90          C94   1.345       .  A
N91          C92   1.352       .  A
C92          C93   1.386       .  A
C92          H95   1.082       .  S
C93          C94   1.378       .  A
C93        C2576   1.447       .  S
C94          H96   1.082       .  S
N97          N98   1.325       .  A
N97         C101   1.351       .  A
N97        Cu105   2.102   1_556  S
N98          C99   1.345       .  A
N98        Cu104   2.079   1_556  S
C99         C100   1.379       .  A
C99         H102   1.082       .  S
C100        C101   1.386       .  A
C100       C2575   1.447       .  S
C101        H103   1.082       .  S
Cu104       N107   2.078       .  S
Cu105       N115   2.102       .  S
Cu106       N108   2.076       .  S
Cu106       N114   2.076       .  S
N107        N108   1.322       .  A
N107        C111   1.347       .  A
N108        C109   1.347       .  A
C109        C110   1.381       .  A
C109        H112   1.082       .  S
C110        C111   1.382       .  A
C110       C2571   1.443       .  S
C111        H113   1.082       .  S
N114        N115   1.325       .  A
N114        C118   1.344       .  A
N115        C116   1.352       .  A
C116        C117   1.387       .  A
C116        H119   1.082       .  S
C117        C118   1.378       .  A
C117       C2570   1.446       .  S
C118        H120   1.082       .  S
N121        N122   1.325       .  A
N121        C125   1.352       .  A
N121       Cu129   2.103       .  S
N122        C123   1.345       .  A
N122       Cu128   2.081       .  S
C123        C124   1.379       .  A
C123        H126   1.082       .  S
C124        C125   1.387       .  A
C124       C2568   1.448       .  S
C125        H127   1.082       .  S
Cu128       N131   2.080       .  S
Cu129       N139   2.103       .  S
Cu130       N132   2.074       .  S
Cu130       N138   2.074       .  S
N131        N132   1.322       .  A
N131        C135   1.348       .  A
N132        C133   1.346       .  A
C133        C134   1.381       .  A
C133        H136   1.082       .  S
C134        C135   1.383       .  A
C134       C2572   1.443       .  S
C135        H137   1.082       .  S
N138        N139   1.325       .  A
N138        C142   1.344       .  A
N139        C140   1.352       .  A
C140        C141   1.387       .  A
C140        H143   1.082       .  S
C141        C142   1.378       .  A
C141       C2565   1.446       .  S
C142        H144   1.082       .  S
N145        N146   1.325       .  A
N145        C149   1.352       .  A
N145       Cu153   2.104       .  S
N146        C147   1.345       .  A
N146       Cu152   2.078       .  S
C147        C148   1.378       .  A
C147        H150   1.082       .  S
C148        C149   1.387       .  A
C148       C2559   1.447       .  S
C149        H151   1.082       .  S
Cu152       N155   2.078       .  S
Cu153       N163   2.104       .  S
Cu154       N156   2.077       .  S
Cu154       N162   2.077       .  S
N155        N156   1.322       .  A
N155        C159   1.347       .  A
N156        C157   1.347       .  A
C157        C158   1.382       .  A
C157        H160   1.082       .  S
C158        C159   1.382       .  A
C158       C2563   1.444       .  S
C159        H161   1.082       .  S
N162        N163   1.325       .  A
N162        C166   1.345       .  A
N163        C164   1.352       .  A
C164        C165   1.387       .  A
C164        H167   1.082       .  S
C165        C166   1.378       .  A
C165       C2561   1.447       .  S
C166        H168   1.082       .  S
N169        N170   1.325       .  A
N169        C173   1.352       .  A
N169       Cu177   2.105       .  S
N170        C171   1.345       .  A
N170       Cu176   2.078       .  S
C171        C172   1.378       .  A
C171        H174   1.082       .  S
C172        C173   1.387       .  A
C172       C2558   1.448       .  S
C173        H175   1.082       .  S
Cu176       N179   2.078       .  S
Cu177       N187   2.105       .  S
Cu178       N180   2.077       .  S
Cu178       N186   2.078       .  S
N179        N180   1.322       .  A
N179        C183   1.347       .  A
N180        C181   1.347       .  A
C181        C182   1.382       .  A
C181        H184   1.082       .  S
C182        C183   1.382       .  A
C182       C2564   1.444       .  S
C183        H185   1.082       .  S
N186        N187   1.325       .  A
N186        C190   1.345       .  A
N187        C188   1.352       .  A
C188        C189   1.387       .  A
C188        H191   1.082       .  S
C189        C190   1.378       .  A
C189       C2556   1.448       .  S
C190        H192   1.082       .  S
N193        N194   1.324       .  A
N193        C197   1.352       .  A
N193       Cu201   2.100   1_565  S
N194        C195   1.344       .  A
N194       Cu200   2.075       .  S
C195        C196   1.378       .  A
C195        H198   1.082       .  S
C196        C197   1.386       .  A
C196       C2566   1.446       .  S
C197        H199   1.082       .  S
Cu200       N203   2.075       .  S
Cu201       N211   2.101       .  S
Cu202       N204   2.081       .  S
Cu202       N210   2.081   1_565  S
N203        N204   1.322       .  A
N203        C207   1.346       .  A
N204        C205   1.348       .  A
C205        C206   1.383       .  A
C205        H208   1.082       .  S
C206        C207   1.381       .  A
C206       C2553   1.443       .  S
C207        H209   1.082       .  S
N210        N211   1.325       .  A
N210        C214   1.345       .  A
N211        C212   1.351       .  A
C212        C213   1.386       .  A
C212        H215   1.082       .  S
C213        C214   1.379       .  A
C213       C2551   1.447       .  S
C214        H216   1.082       .  S
N217        N218   1.325       .  A
N217        C221   1.352       .  A
N217       Cu225   2.103       .  S
N218        C219   1.345       .  A
N218       Cu224   2.077       .  S
C219        C220   1.379       .  A
C219        H222   1.082       .  S
C220        C221   1.387       .  A
C220       C2550   1.447       .  S
C221        H223   1.082       .  S
Cu224       N227   2.077       .  S
Cu225       N235   2.103       .  S
Cu226       N228   2.080       .  S
Cu226       N234   2.081       .  S
N227        N228   1.322       .  A
N227        C231   1.347       .  A
N228        C229   1.347       .  A
C229        C230   1.382       .  A
C229        H232   1.082       .  S
C230        C231   1.381       .  A
C230       C2554   1.443       .  S
C231        H233   1.082       .  S
N234        N235   1.325       .  A
N234        C238   1.346       .  A
N235        C236   1.352       .  A
C236        C237   1.386       .  A
C236        H239   1.082       .  S
C237        C238   1.379       .  A
C237       C2562   1.448       .  S
C238        H240   1.082       .  S
N241        N242   1.325       .  A
N241        C245   1.352       .  A
N241       Cu249   2.103       .  S
N242        C243   1.345       .  A
N242       Cu248   2.081       .  S
C243        C244   1.379       .  A
C243        H246   1.082       .  S
C244        C245   1.387       .  A
C244       C2543   1.448       .  S
C245        H247   1.082       .  S
Cu248       N251   2.080       .  S
Cu249       N259   2.103   1_556  S
Cu250       N252   2.078       .  S
Cu250       N258   2.079   1_556  S
N251        N252   1.322       .  A
N251        C255   1.347       .  A
N252        C253   1.347       .  A
C253        C254   1.382       .  A
C253        H256   1.082       .  S
C254        C255   1.382       .  A
C254       C2548   1.444       .  S
C255        H257   1.082       .  S
N258        N259   1.325       .  A
N258        C262   1.345       .  A
N259        C260   1.352       .  A
C260        C261   1.387       .  A
C260        H263   1.082       .  S
C261        C262   1.378       .  A
C261       C2545   1.447       .  S
C262        H264   1.082       .  S
N265        N266   1.325       .  A
N265        C269   1.352       .  A
N265       Cu273   2.105       .  S
N266        C267   1.345       .  A
N266       Cu272   2.080       .  S
C267        C268   1.379       .  A
C267        H270   1.082       .  S
C268        C269   1.387       .  A
C268       C2540   1.448       .  S
C269        H271   1.082       .  S
Cu272       N275   2.080       .  S
Cu273       N283   2.105       .  S
Cu274       N276   2.078       .  S
Cu274       N282   2.078       .  S
N275        N276   1.322       .  A
N275        C279   1.348       .  A
N276        C277   1.347       .  A
C277        C278   1.382       .  A
C277        H280   1.082       .  S
C278        C279   1.382       .  A
C278       C2547   1.444       .  S
C279        H281   1.082       .  S
N282        N283   1.325       .  A
N282        C286   1.345       .  A
N283        C284   1.352       .  A
C284        C285   1.387       .  A
C284        H287   1.082       .  S
C285        C286   1.379       .  A
C285       C2541   1.448       .  S
C286        H288   1.082       .  S
N289        N290   1.325       .  A
N289        C293   1.352       .  A
N289       Cu297   2.105   1_455  S
N290        C291   1.345       .  A
N290       Cu296   2.080       .  S
C291        C292   1.379       .  A
C291        H294   1.082       .  S
C292        C293   1.387       .  A
C292       C2583   1.448       .  S
C293        H295   1.082       .  S
Cu296       N299   2.080       .  S
Cu297       N307   2.105       .  S
Cu298       N300   2.076       .  S
Cu298       N306   2.077   1_455  S
N299        N300   1.322       .  A
N299        C303   1.347       .  A
N300        C301   1.347       .  A
C301        C302   1.381       .  A
C301        H304   1.082       .  S
C302        C303   1.382       .  A
C302       C2537   1.443       .  S
C303        H305   1.082       .  S
N306        N307   1.325       .  A
N306        C310   1.345       .  A
N307        C308   1.352       .  A
C308        C309   1.387       .  A
C308        H311   1.082       .  S
C309        C310   1.378       .  A
C309       C2542   1.448       .  S
C310        H312   1.082       .  S
N313        N314   1.325       .  A
N313        C317   1.352       .  A
N313       Cu321   2.103       .  S
N314        C315   1.345       .  A
N314       Cu320   2.077       .  S
C315        C316   1.379       .  A
C315        H318   1.082       .  S
C316        C317   1.387       .  A
C316       C2580   1.448       .  S
C317        H319   1.082       .  S
Cu320       N323   2.077       .  S
Cu321       N331   2.104       .  S
Cu322       N324   2.079       .  S
Cu322       N330   2.079       .  S
N323        N324   1.322       .  A
N323        C327   1.347       .  A
N324        C325   1.348       .  A
C325        C326   1.382       .  A
C325        H328   1.082       .  S
C326        C327   1.381       .  A
C326       C2538   1.443       .  S
C327        H329   1.082       .  S
N330        N331   1.325       .  A
N330        C334   1.345       .  A
N331        C332   1.352       .  A
C332        C333   1.387       .  A
C332        H335   1.082       .  S
C333        C334   1.378       .  A
C333       C2535   1.447       .  S
C334        H336   1.082       .  S
N337        N338   1.325       .  A
N337        C341   1.351       .  A
N337       Cu345   2.097   1_455  S
N338        C339   1.345       .  A
N338       Cu344   2.080       .  S
C339        C340   1.379       .  A
C339        H342   1.082       .  S
C340        C341   1.385       .  A
C340       C2529   1.446       .  S
C341        H343   1.082       .  S
Cu344       N347   2.080       .  S
Cu345       N355   2.097       .  S
Cu346       N348   2.079       .  S
Cu346       N354   2.079   1_455  S
N347        N348   1.322       .  A
N347        C351   1.347       .  A
N348        C349   1.347       .  A
C349        C350   1.382       .  A
C349        H352   1.082       .  S
C350        C351   1.382       .  A
C350       C2533   1.444       .  S
C351        H353   1.082       .  S
N354        N355   1.325       .  A
N354        C358   1.345       .  A
N355        C356   1.351       .  A
C356        C357   1.386       .  A
C356        H359   1.082       .  S
C357        C358   1.379       .  A
C357       C2531   1.446       .  S
C358        H360   1.082       .  S
N361        N362   1.325       .  A
N361        C365   1.351       .  A
N361       Cu369   2.099       .  S
N362        C363   1.345       .  A
N362       Cu368   2.080       .  S
C363        C364   1.379       .  A
C363        H366   1.082       .  S
C364        C365   1.386       .  A
C364       C2569   1.447       .  S
C365        H367   1.082       .  S
Cu368       N371   2.080       .  S
Cu369       N379   2.099       .  S
Cu370       N372   2.080       .  S
Cu370       N378   2.081       .  S
N371        N372   1.322       .  A
N371        C375   1.347       .  A
N372        C373   1.348       .  A
C373        C374   1.382       .  A
C373        H376   1.082       .  S
C374        C375   1.382       .  A
C374       C2534   1.444       .  S
C375        H377   1.082       .  S
N378        N379   1.325       .  A
N378        C382   1.345       .  A
N379        C380   1.351       .  A
C380        C381   1.386       .  A
C380        H383   1.082       .  S
C381        C382   1.379       .  A
C381       C2527   1.446       .  S
C382        H384   1.082       .  S
N385        N386   1.325       .  A
N385        C389   1.352       .  A
N385       Cu393   2.106   1_556  S
N386        C387   1.345       .  A
N386       Cu392   2.078   1_556  S
C387        C388   1.379       .  A
C387        H390   1.082       .  S
C388        C389   1.387       .  A
C388       C2524   1.448       .  S
C389        H391   1.082       .  S
Cu392       N395   2.077       .  S
Cu393       N403   2.106       .  S
Cu394       N396   2.074       .  S
Cu394       N402   2.074       .  S
N395        N396   1.322       .  A
N395        C399   1.347       .  A
N396        C397   1.347       .  A
C397        C398   1.381       .  A
C397        H400   1.082       .  S
C398        C399   1.382       .  A
C398       C2526   1.442       .  S
C399        H401   1.082       .  S
N402        N403   1.325       .  A
N402        C406   1.344       .  A
N403        C404   1.352       .  A
C404        C405   1.388       .  A
C404        H407   1.082       .  S
C405        C406   1.378       .  A
C405       C2521   1.447       .  S
C406        H408   1.082       .  S
N409        N410   1.325       .  A
N409        C413   1.352       .  A
N409       Cu417   2.104       .  S
N410        C411   1.345       .  A
N410       Cu416   2.080       .  S
C411        C412   1.379       .  A
C411        H414   1.082       .  S
C412        C413   1.386       .  A
C412       C2520   1.448       .  S
C413        H415   1.082       .  S
Cu416       N419   2.079       .  S
Cu417       N427   2.104       .  S
Cu418       N420   2.074       .  S
Cu418       N426   2.074       .  S
N419        N420   1.322       .  A
N419        C423   1.347       .  A
N420        C421   1.346       .  A
C421        C422   1.381       .  A
C421        H424   1.082       .  S
C422        C423   1.382       .  A
C422       C2525   1.442       .  S
C423        H425   1.082       .  S
N426        N427   1.324       .  A
N426        C430   1.344       .  A
N427        C428   1.352       .  A
C428        C429   1.387       .  A
C428        H431   1.082       .  S
C429        C430   1.378       .  A
C429       C2517   1.446       .  S
C430        H432   1.082       .  S
N433        N434   1.324       .  A
N433        C437   1.352       .  A
N433       Cu441   2.103   1_565  S
N434        C435   1.344       .  A
N434       Cu440   2.075   1_565  S
C435        C436   1.378       .  A
C435        H438   1.082       .  S
C436        C437   1.387       .  A
C436       C2513   1.447       .  S
C437        H439   1.082       .  S
Cu440       N443   2.075       .  S
Cu441       N451   2.104       .  S
Cu442       N444   2.081       .  S
Cu442       N450   2.082       .  S
N443        N444   1.322       .  A
N443        C447   1.347       .  A
N444        C445   1.348       .  A
C445        C446   1.383       .  A
C445        H448   1.082       .  S
C446        C447   1.381       .  A
C446       C2515   1.443       .  S
C447        H449   1.082       .  S
N450        N451   1.325       .  A
N450        C454   1.346       .  A
N451        C452   1.352       .  A
C452        C453   1.386       .  A
C452        H455   1.082       .  S
C453        C454   1.379       .  A
C453       C2539   1.448       .  S
C454        H456   1.082       .  S
N457        N458   1.325       .  A
N457        C461   1.352       .  A
N457       Cu465   2.105       .  S
N458        C459   1.345       .  A
N458       Cu464   2.079       .  S
C459        C460   1.379       .  A
C459        H462   1.082       .  S
C460        C461   1.387       .  A
C460       C2523   1.448       .  S
C461        H463   1.082       .  S
Cu464       N467   2.079       .  S
Cu465       N475   2.105       .  S
Cu466       N468   2.077       .  S
Cu466       N474   2.077       .  S
N467        N468   1.322       .  A
N467        C471   1.347       .  A
N468        C469   1.347       .  A
C469        C470   1.382       .  A
C469        H472   1.082       .  S
C470        C471   1.382       .  A
C470       C2516   1.443       .  S
C471        H473   1.082       .  S
N474        N475   1.325       .  A
N474        C478   1.345       .  A
N475        C476   1.352       .  A
C476        C477   1.387       .  A
C476        H479   1.082       .  S
C477        C478   1.378       .  A
C477       C2511   1.448       .  S
C478        H480   1.082       .  S
N481        N482   1.325       .  A
N481        C485   1.352       .  A
N481       Cu489   2.102       .  S
N482        C483   1.346       .  A
N482       Cu488   2.081       .  S
C483        C484   1.379       .  A
C483        H486   1.082       .  S
C484        C485   1.387       .  A
C484       C2507   1.448       .  S
C485        H487   1.082       .  S
Cu488       N491   2.080       .  S
Cu489       N499   2.102       .  S
Cu490       N492   2.081       .  S
Cu490       N498   2.082       .  S
N491        N492   1.322       .  A
N491        C495   1.347       .  A
N492        C493   1.348       .  A
C493        C494   1.383       .  A
C493        H496   1.082       .  S
C494        C495   1.382       .  A
C494       C2509   1.445       .  S
C495        H497   1.082       .  S
N498        N499   1.325       .  A
N498        C502   1.346       .  A
N499        C500   1.352       .  A
C500        C501   1.386       .  A
C500        H503   1.082       .  S
C501        C502   1.379       .  A
C501       C2512   1.448       .  S
C502        H504   1.082       .  S
N505        N506   1.325       .  A
N505        C509   1.352       .  A
N505       Cu513   2.104       .  S
N506        C507   1.345       .  A
N506       Cu512   2.079       .  S
C507        C508   1.379       .  A
C507        H510   1.082       .  S
C508        C509   1.387       .  A
C508       C2503   1.447       .  S
C509        H511   1.082       .  S
Cu512       N515   2.079       .  S
Cu513       N523   2.104       .  S
Cu514       N516   2.081       .  S
Cu514       N522   2.081       .  S
N515        N516   1.322       .  A
N515        C519   1.347       .  A
N516        C517   1.348       .  A
C517        C518   1.383       .  A
C517        H520   1.082       .  S
C518        C519   1.382       .  A
C518       C2510   1.445       .  S
C519        H521   1.082       .  S
N522        N523   1.325       .  A
N522        C526   1.345       .  A
N523        C524   1.352       .  A
C524        C525   1.387       .  A
C524        H527   1.082       .  S
C525        C526   1.379       .  A
C525       C2505   1.448       .  S
C526        H528   1.082       .  S
N529        N530   1.324       .  A
N529        C533   1.351       .  A
N529       Cu537   2.101       .  S
N530        C531   1.345       .  A
N530       Cu536   2.076       .  S
C531        C532   1.379       .  A
C531        H534   1.082       .  S
C532        C533   1.386       .  A
C532       C2518   1.447       .  S
C533        H535   1.082       .  S
Cu536       N539   2.075       .  S
Cu537       N547   2.101   1_545  S
Cu538       N540   2.080       .  S
Cu538       N546   2.080   1_545  S
N539        N540   1.322       .  A
N539        C543   1.346       .  A
N540        C541   1.348       .  A
C541        C542   1.382       .  A
C541        H544   1.082       .  S
C542        C543   1.381       .  A
C542       C2502   1.442       .  S
C543        H545   1.082       .  S
N546        N547   1.325       .  A
N546        C550   1.345       .  A
N547        C548   1.351       .  A
C548        C549   1.386       .  A
C548        H551   1.082       .  S
C549        C550   1.379       .  A
C549       C2499   1.446       .  S
C550        H552   1.082       .  S
N553        N554   1.324       .  A
N553        C557   1.352       .  A
N553       Cu561   2.102       .  S
N554        C555   1.345       .  A
N554       Cu560   2.076       .  S
C555        C556   1.379       .  A
C555        H558   1.082       .  S
C556        C557   1.387       .  A
C556       C2546   1.447       .  S
C557        H559   1.082       .  S
Cu560       N563   2.076       .  S
Cu561       N571   2.102       .  S
Cu562       N564   2.080       .  S
Cu562       N570   2.080       .  S
N563        N564   1.322       .  A
N563        C567   1.346       .  A
N564        C565   1.347       .  A
C565        C566   1.382       .  A
C565        H568   1.082       .  S
C566        C567   1.381       .  A
C566       C2501   1.442       .  S
C567        H569   1.082       .  S
N570        N571   1.325       .  A
N570        C574   1.345       .  A
N571        C572   1.351       .  A
C572        C573   1.386       .  A
C572        H575   1.082       .  S
C573        C574   1.379       .  A
C573       C2498   1.447       .  S
C574        H576   1.082       .  S
N577        N578   1.325       .  A
N577        C581   1.352       .  A
N577       Cu585   2.104   1_455  S
N578        C579   1.345       .  A
N578       Cu584   2.081   1_455  S
C579        C580   1.379       .  A
C579        H582   1.082       .  S
C580        C581   1.387       .  A
C580       C2567   1.448       .  S
C581        H583   1.082       .  S
Cu584       N587   2.081       .  S
Cu585       N595   2.103       .  S
Cu586       N588   2.074       .  S
Cu586       N594   2.075       .  S
N587        N588   1.322       .  A
N587        C591   1.348       .  A
N588        C589   1.346       .  A
C589        C590   1.381       .  A
C589        H592   1.082       .  S
C590        C591   1.383       .  A
C590       C2495   1.443       .  S
C591        H593   1.082       .  S
N594        N595   1.324       .  A
N594        C598   1.344       .  A
N595        C596   1.352       .  A
C596        C597   1.387       .  A
C596        H599   1.082       .  S
C597        C598   1.378       .  A
C597       C2494   1.446       .  S
C598        H600   1.082       .  S
N601        N602   1.325       .  A
N601        C605   1.351       .  A
N601       Cu609   2.100       .  S
N602        C603   1.345       .  A
N602       Cu608   2.078       .  S
C603        C604   1.379       .  A
C603        H606   1.082       .  S
C604        C605   1.386       .  A
C604       C2500   1.446       .  S
C605        H607   1.082       .  S
Cu608       N611   2.078       .  S
Cu609       N619   2.100       .  S
Cu610       N612   2.078       .  S
Cu610       N618   2.078       .  S
N611        N612   1.322       .  A
N611        C615   1.347       .  A
N612        C613   1.347       .  A
C613        C614   1.381       .  A
C613        H616   1.082       .  S
C614        C615   1.382       .  A
C614       C2496   1.443       .  S
C615        H617   1.082       .  S
N618        N619   1.324       .  A
N618        C622   1.345       .  A
N619        C620   1.351       .  A
C620        C621   1.386       .  A
C620        H623   1.082       .  S
C621        C622   1.379       .  A
C621       C2491   1.447       .  S
C622        H624   1.082       .  S
N625        N626   1.325       .  A
N625        C629   1.351       .  A
N625       Cu633   2.102       .  S
N626        C627   1.345       .  A
N626       Cu632   2.079       .  S
C627        C628   1.378       .  A
C627        H630   1.082       .  S
C628        C629   1.386       .  A
C628       C2487   1.446       .  S
C629        H631   1.082       .  S
Cu632       N635   2.078       .  S
Cu633       N643   2.101       .  S
Cu634       N636   2.075       .  S
Cu634       N642   2.075       .  S
N635        N636   1.322       .  A
N635        C639   1.347       .  A
N636        C637   1.346       .  A
C637        C638   1.381       .  A
C637        H640   1.082       .  S
C638        C639   1.382       .  A
C638       C2490   1.442       .  S
C639        H641   1.082       .  S
N642        N643   1.324       .  A
N642        C646   1.344       .  A
N643        C644   1.352       .  A
C644        C645   1.387       .  A
C644        H647   1.082       .  S
C645        C646   1.378       .  A
C645       C2485   1.446       .  S
C646        H648   1.082       .  S
N649        N650   1.325       .  A
N649        C653   1.352       .  A
N649       Cu657   2.104       .  S
N650        C651   1.345       .  A
N650       Cu656   2.078       .  S
C651        C652   1.379       .  A
C651        H654   1.082       .  S
C652        C653   1.387       .  A
C652       C2481   1.447       .  S
C653        H655   1.082       .  S
Cu656       N659   2.078       .  S
Cu657       N667   2.104       .  S
Cu658       N660   2.075       .  S
Cu658       N666   2.075       .  S
N659        N660   1.322       .  A
N659        C663   1.347       .  A
N660        C661   1.347       .  A
C661        C662   1.381       .  A
C661        H664   1.082       .  S
C662        C663   1.382       .  A
C662       C2489   1.442       .  S
C663        H665   1.082       .  S
N666        N667   1.325       .  A
N666        C670   1.344       .  A
N667        C668   1.352       .  A
C668        C669   1.387       .  A
C668        H671   1.082       .  S
C669        C670   1.378       .  A
C669       C2483   1.447       .  S
C670        H672   1.082       .  S
N673        N674   1.325       .  A
N673        C677   1.352       .  A
N673       Cu681   2.101       .  S
N674        C675   1.345       .  A
N674       Cu680   2.079       .  S
C675        C676   1.379       .  A
C675        H678   1.082       .  S
C676        C677   1.386       .  A
C676       C2477   1.447       .  S
C677        H679   1.082       .  S
Cu680       N683   2.079       .  S
Cu681       N691   2.101       .  S
Cu682       N684   2.079       .  S
Cu682       N690   2.080       .  S
N683        N684   1.322       .  A
N683        C687   1.347       .  A
N684        C685   1.347       .  A
C685        C686   1.382       .  A
C685        H688   1.082       .  S
C686        C687   1.382       .  A
C686       C2479   1.444       .  S
C687        H689   1.082       .  S
N690        N691   1.325       .  A
N690        C694   1.345       .  A
N691        C692   1.351       .  A
C692        C693   1.386       .  A
C692        H695   1.082       .  S
C693        C694   1.379       .  A
C693       C2476   1.447       .  S
C694        H696   1.082       .  S
N697        N698   1.325       .  A
N697        C701   1.352       .  A
N697       Cu705   2.103       .  S
N698        C699   1.345       .  A
N698       Cu704   2.078       .  S
C699        C700   1.378       .  A
C699        H702   1.082       .  S
C700        C701   1.387       .  A
C700       C2473   1.447       .  S
C701        H703   1.082       .  S
Cu704       N707   2.078       .  S
Cu705       N715   2.103       .  S
Cu706       N708   2.079       .  S
Cu706       N714   2.079       .  S
N707        N708   1.322       .  A
N707        C711   1.347       .  A
N708        C709   1.347       .  A
C709        C710   1.382       .  A
C709        H712   1.082       .  S
C710        C711   1.382       .  A
C710       C2480   1.444       .  S
C711        H713   1.082       .  S
N714        N715   1.325       .  A
N714        C718   1.345       .  A
N715        C716   1.352       .  A
C716        C717   1.386       .  A
C716        H719   1.082       .  S
C717        C718   1.379       .  A
C717       C2560   1.447       .  S
C718        H720   1.082       .  S
N721        N722   1.324       .  A
N721        C725   1.352       .  A
N721       Cu729   2.102       .  S
N722        C723   1.345       .  A
N722       Cu728   2.077   1_545  S
C723        C724   1.379       .  A
C723        H726   1.082       .  S
C724        C725   1.387       .  A
C724       C2469   1.447       .  S
C725        H727   1.082       .  S
Cu728       N731   2.076       .  S
Cu729       N739   2.103   1_545  S
Cu730       N732   2.079       .  S
Cu730       N738   2.079       .  S
N731        N732   1.322       .  A
N731        C735   1.347       .  A
N732        C733   1.347       .  A
C733        C734   1.382       .  A
C733        H736   1.082       .  S
C734        C735   1.381       .  A
C734       C2471   1.442       .  S
C735        H737   1.082       .  S
N738        N739   1.325       .  A
N738        C742   1.345       .  A
N739        C740   1.352       .  A
C740        C741   1.386       .  A
C740        H743   1.082       .  S
C741        C742   1.379       .  A
C741       C2474   1.447       .  S
C742        H744   1.082       .  S
N745        N746   1.324       .  A
N745        C749   1.352       .  A
N745       Cu753   2.101       .  S
N746        C747   1.344       .  A
N746       Cu752   2.074       .  S
C747        C748   1.378       .  A
C747        H750   1.082       .  S
C748        C749   1.387       .  A
C748       C2493   1.446       .  S
C749        H751   1.082       .  S
Cu752       N755   2.074       .  S
Cu753       N763   2.101       .  S
Cu754       N756   2.081       .  S
Cu754       N762   2.081       .  S
N755        N756   1.322       .  A
N755        C759   1.346       .  A
N756        C757   1.348       .  A
C757        C758   1.383       .  A
C757        H760   1.082       .  S
C758        C759   1.381       .  A
C758       C2472   1.442       .  S
C759        H761   1.082       .  S
N762        N763   1.325       .  A
N762        C766   1.345       .  A
N763        C764   1.351       .  A
C764        C765   1.385       .  A
C764        H767   1.082       .  S
C765        C766   1.379       .  A
C765       C2488   1.446       .  S
C766        H768   1.082       .  S
N769        N770   1.325       .  A
N769        C773   1.352       .  A
N769       Cu777   2.104       .  S
N770        C771   1.345       .  A
N770       Cu776   2.079   1_545  S
C771        C772   1.379       .  A
C771        H774   1.082       .  S
C772        C773   1.387       .  A
C772       C2506   1.447       .  S
C773        H775   1.082       .  S
Cu776       N779   2.078       .  S
Cu777       N787   2.104   1_545  S
Cu778       N780   2.077       .  S
Cu778       N786   2.077       .  S
N779        N780   1.322       .  A
N779        C783   1.347       .  A
N780        C781   1.347       .  A
C781        C782   1.382       .  A
C781        H784   1.082       .  S
C782        C783   1.382       .  A
C782       C2467   1.443       .  S
C783        H785   1.082       .  S
N786        N787   1.325       .  A
N786        C790   1.345       .  A
N787        C788   1.352       .  A
C788        C789   1.387       .  A
C788        H791   1.082       .  S
C789        C790   1.378       .  A
C789       C2482   1.447       .  S
C790        H792   1.082       .  S
N793        N794   1.324       .  A
N793        C797   1.352       .  A
N793       Cu801   2.105       .  S
N794        C795   1.344       .  A
N794       Cu800   2.074       .  S
C795        C796   1.378       .  A
C795        H798   1.082       .  S
C796        C797   1.388       .  A
C796       C2478   1.447       .  S
C797        H799   1.082       .  S
Cu800       N803   2.073       .  S
Cu801       N811   2.106       .  S
Cu802       N804   2.080       .  S
Cu802       N810   2.080       .  S
N803        N804   1.322       .  A
N803        C807   1.346       .  A
N804        C805   1.348       .  A
C805        C806   1.383       .  A
C805        H808   1.082       .  S
C806        C807   1.381       .  A
C806       C2468   1.442       .  S
C807        H809   1.082       .  S
N810        N811   1.325       .  A
N810        C814   1.345       .  A
N811        C812   1.352       .  A
C812        C813   1.387       .  A
C812        H815   1.082       .  S
C813        C814   1.379       .  A
C813       C2465   1.448       .  S
C814        H816   1.082       .  S
N817        N818   1.325       .  A
N817        C821   1.352       .  A
N817       Cu825   2.103       .  S
N818        C819   1.345       .  A
N818       Cu824   2.080       .  S
C819        C820   1.379       .  A
C819        H822   1.082       .  S
C820        C821   1.387       .  A
C820       C2466   1.448       .  S
C821        H823   1.082       .  S
Cu824       N827   2.079       .  S
Cu825       N835   2.103       .  S
Cu826       N828   2.077       .  S
Cu826       N834   2.077       .  S
N827        N828   1.322       .  A
N827        C831   1.347       .  A
N828        C829   1.347       .  A
C829        C830   1.382       .  A
C829        H832   1.082       .  S
C830        C831   1.382       .  A
C830       C2463   1.443       .  S
C831        H833   1.082       .  S
N834        N835   1.325       .  A
N834        C838   1.345       .  A
N835        C836   1.352       .  A
C836        C837   1.387       .  A
C836        H839   1.082       .  S
C837        C838   1.378       .  A
C837       C2461   1.447       .  S
C838        H840   1.082       .  S
N841        N842   1.324       .  A
N841        C845   1.352       .  A
N841       Cu849   2.103       .  S
N842        C843   1.345       .  A
N842       Cu848   2.077       .  S
C843        C844   1.378       .  A
C843        H846   1.082       .  S
C844        C845   1.387       .  A
C844       C2514   1.447       .  S
C845        H847   1.082       .  S
Cu848       N851   2.076       .  S
Cu849       N859   2.103       .  S
Cu850       N852   2.080       .  S
Cu850       N858   2.080       .  S
N851        N852   1.322       .  A
N851        C855   1.347       .  A
N852        C853   1.348       .  A
C853        C854   1.382       .  A
C853        H856   1.082       .  S
C854        C855   1.381       .  A
C854       C2464   1.443       .  S
C855        H857   1.082       .  S
N858        N859   1.325       .  A
N858        C862   1.345       .  A
N859        C860   1.352       .  A
C860        C861   1.386       .  A
C860        H863   1.082       .  S
C861        C862   1.379       .  A
C861       C2459   1.447       .  S
C862        H864   1.082       .  S
N865        N866   1.325       .  A
N865        C869   1.353       .  A
N865       Cu873   2.107       .  S
N866        C867   1.345       .  A
N866       Cu872   2.076       .  S
C867        C868   1.378       .  A
C867        H870   1.082       .  S
C868        C869   1.388       .  A
C868       C2455   1.448       .  S
C869        H871   1.082       .  S
Cu872       N875   2.076       .  S
Cu873       N883   2.107       .  S
Cu874       N876   2.077       .  S
Cu874       N882   2.077       .  S
N875        N876   1.322       .  A
N875        C879   1.347       .  A
N876        C877   1.347       .  A
C877        C878   1.382       .  A
C877        H880   1.082       .  S
C878        C879   1.381       .  A
C878       C2457   1.442       .  S
C879        H881   1.082       .  S
N882        N883   1.325       .  A
N882        C886   1.345       .  A
N883        C884   1.352       .  A
C884        C885   1.387       .  A
C884        H887   1.082       .  S
C885        C886   1.378       .  A
C885       C2454   1.448       .  S
C886        H888   1.082       .  S
N889        N890   1.325       .  A
N889        C893   1.352       .  A
N889       Cu897   2.107       .  S
N890        C891   1.345       .  A
N890       Cu896   2.077       .  S
C891        C892   1.378       .  A
C891        H894   1.082       .  S
C892        C893   1.387       .  A
C892       C2452   1.448       .  S
C893        H895   1.082       .  S
Cu896       N899   2.077       .  S
Cu897       N907   2.107       .  S
Cu898       N900   2.078       .  S
Cu898       N906   2.078       .  S
N899        N900   1.322       .  A
N899        C903   1.347       .  A
N900        C901   1.347       .  A
C901        C902   1.382       .  A
C901        H904   1.082       .  S
C902        C903   1.382       .  A
C902       C2458   1.442       .  S
C903        H905   1.082       .  S
N906        N907   1.325       .  A
N906        C910   1.345       .  A
N907        C908   1.352       .  A
C908        C909   1.387       .  A
C908        H911   1.082       .  S
C909        C910   1.379       .  A
C909       C2449   1.449       .  S
C910        H912   1.082       .  S
N913        N914   1.325       .  A
N913        C917   1.352       .  A
N913       Cu921   2.104       .  S
N914        C915   1.345       .  A
N914       Cu920   2.079       .  S
C915        C916   1.379       .  A
C915        H918   1.082       .  S
C916        C917   1.387       .  A
C916       C2451   1.448       .  S
C917        H919   1.082       .  S
Cu920       N923   2.078       .  S
Cu921       N931   2.104   1_556  S
Cu922       N924   2.079       .  S
Cu922       N930   2.080   1_556  S
N923        N924   1.322       .  A
N923        C927   1.347       .  A
N924        C925   1.347       .  A
C925        C926   1.382       .  A
C925        H928   1.082       .  S
C926        C927   1.382       .  A
C926       C2447   1.444       .  S
C927        H929   1.082       .  S
N930        N931   1.325       .  A
N930        C934   1.345       .  A
N931        C932   1.352       .  A
C932        C933   1.387       .  A
C932        H935   1.082       .  S
C933        C934   1.379       .  A
C933       C2549   1.447       .  S
C934        H936   1.082       .  S
N937        N938   1.325       .  A
N937        C941   1.352       .  A
N937       Cu945   2.103       .  S
N938        C939   1.345       .  A
N938       Cu944   2.080       .  S
C939        C940   1.379       .  A
C939        H942   1.082       .  S
C940        C941   1.387       .  A
C940       C2577   1.448       .  S
C941        H943   1.082       .  S
Cu944       N947   2.080       .  S
Cu945       N955   2.103       .  S
Cu946       N948   2.078       .  S
Cu946       N954   2.079       .  S
N947        N948   1.322       .  A
N947        C951   1.347       .  A
N948        C949   1.347       .  A
C949        C950   1.382       .  A
C949        H952   1.082       .  S
C950        C951   1.382       .  A
C950       C2448   1.444       .  S
C951        H953   1.082       .  S
N954        N955   1.325       .  A
N954        C958   1.345       .  A
N955        C956   1.352       .  A
C956        C957   1.387       .  A
C956        H959   1.082       .  S
C957        C958   1.379       .  A
C957       C2462   1.447       .  S
C958        H960   1.082       .  S
N961        N962   1.325       .  A
N961        C965   1.352       .  A
N961       Cu969   2.103   1_554  S
N962        C963   1.344       .  A
N962       Cu968   2.075   1_554  S
C963        C964   1.378       .  A
C963        H966   1.082       .  S
C964        C965   1.387       .  A
C964       C2443   1.446       .  S
C965        H967   1.082       .  S
Cu968       N971   2.075       .  S
Cu969       N979   2.103       .  S
Cu970       N972   2.080       .  S
Cu970       N978   2.080       .  S
N971        N972   1.322       .  A
N971        C975   1.346       .  A
N972        C973   1.347       .  A
C973        C974   1.382       .  A
C973        H976   1.082       .  S
C974        C975   1.381       .  A
C974       C2445   1.443       .  S
C975        H977   1.082       .  S
N978        N979   1.325       .  A
N978        C982   1.345       .  A
N979        C980   1.352       .  A
C980        C981   1.386       .  A
C980        H983   1.082       .  S
C981        C982   1.379       .  A
C981       C2460   1.447       .  S
C982        H984   1.082       .  S
N985        N986   1.325       .  A
N985        C989   1.352       .  A
N985       Cu993   2.102       .  S
N986        C987   1.346       .  A
N986       Cu992   2.080       .  S
C987        C988   1.380       .  A
C987        H990   1.082       .  S
C988        C989   1.387       .  A
C988       C2456   1.448       .  S
C989        H991   1.082       .  S
Cu992       N995   2.079       .  S
Cu993      N1003   2.102       .  S
Cu994       N996   2.077       .  S
Cu994      N1002   2.077       .  S
N995        N996   1.322       .  A
N995        C999   1.347       .  A
N996        C997   1.347       .  A
C997        C998   1.382       .  A
C997       H1000   1.082       .  S
C998        C999   1.382       .  A
C998       C2446   1.443       .  S
C999       H1001   1.082       .  S
N1002      N1003   1.325       .  A
N1002      C1006   1.345       .  A
N1003      C1004   1.351       .  A
C1004      C1005   1.386       .  A
C1004      H1007   1.082       .  S
C1005      C1006   1.379       .  A
C1005      C2441   1.447       .  S
C1006      H1008   1.082       .  S
N1009      N1010   1.324       .  A
N1009      C1013   1.352       .  A
N1009     Cu1017   2.102       .  S
N1010      C1011   1.345       .  A
N1010     Cu1016   2.076       .  S
C1011      C1012   1.378       .  A
C1011      H1014   1.082       .  S
C1012      C1013   1.387       .  A
C1012      C2435   1.447       .  S
C1013      H1015   1.082       .  S
Cu1016     N1019   2.076       .  S
Cu1017     N1027   2.102       .  S
Cu1018     N1020   2.080       .  S
Cu1018     N1026   2.080       .  S
N1019      N1020   1.322       .  A
N1019      C1023   1.346       .  A
N1020      C1021   1.348       .  A
C1021      C1022   1.382       .  A
C1021      H1024   1.082       .  S
C1022      C1023   1.381       .  A
C1022      C2439   1.443       .  S
C1023      H1025   1.082       .  S
N1026      N1027   1.325       .  A
N1026      C1030   1.345       .  A
N1027      C1028   1.351       .  A
C1028      C1029   1.386       .  A
C1028      H1031   1.082       .  S
C1029      C1030   1.379       .  A
C1029      C2437   1.447       .  S
C1030      H1032   1.082       .  S
N1033      N1034   1.325       .  A
N1033      C1037   1.352       .  A
N1033     Cu1041   2.102       .  S
N1034      C1035   1.344       .  A
N1034     Cu1040   2.076       .  S
C1035      C1036   1.378       .  A
C1035      H1038   1.082       .  S
C1036      C1037   1.387       .  A
C1036      C2432   1.446       .  S
C1037      H1039   1.082       .  S
Cu1040     N1043   2.076       .  S
Cu1041     N1051   2.102       .  S
Cu1042     N1044   2.078       .  S
Cu1042     N1050   2.078       .  S
N1043      N1044   1.322       .  A
N1043      C1047   1.347       .  A
N1044      C1045   1.347       .  A
C1045      C1046   1.382       .  A
C1045      H1048   1.082       .  S
C1046      C1047   1.382       .  A
C1046      C2440   1.443       .  S
C1047      H1049   1.082       .  S
N1050      N1051   1.325       .  A
N1050      C1054   1.345       .  A
N1051      C1052   1.352       .  A
C1052      C1053   1.386       .  A
C1052      H1055   1.082       .  S
C1053      C1054   1.379       .  A
C1053      C2433   1.447       .  S
C1054      H1056   1.082       .  S
N1057      N1058   1.325       .  A
N1057      C1061   1.352       .  A
N1057     Cu1065   2.104       .  S
N1058      C1059   1.345       .  A
N1058     Cu1064   2.077       .  S
C1059      C1060   1.378       .  A
C1059      H1062   1.082       .  S
C1060      C1061   1.387       .  A
C1060      C2427   1.447       .  S
C1061      H1063   1.082       .  S
Cu1064     N1067   2.076       .  S
Cu1065     N1075   2.104   1_655  S
Cu1066     N1068   2.078       .  S
Cu1066     N1074   2.078   1_655  S
N1067      N1068   1.322       .  A
N1067      C1071   1.347       .  A
N1068      C1069   1.347       .  A
C1069      C1070   1.382       .  A
C1069      H1072   1.082       .  S
C1070      C1071   1.381       .  A
C1070      C2429   1.442       .  S
C1071      H1073   1.082       .  S
N1074      N1075   1.325       .  A
N1074      C1078   1.345       .  A
N1075      C1076   1.352       .  A
C1076      C1077   1.387       .  A
C1076      H1079   1.082       .  S
C1077      C1078   1.379       .  A
C1077      C2425   1.448       .  S
C1078      H1080   1.082       .  S
N1081      N1082   1.325       .  A
N1081      C1085   1.352       .  A
N1081     Cu1089   2.101       .  S
N1082      C1083   1.345       .  A
N1082     Cu1088   2.077       .  S
C1083      C1084   1.378       .  A
C1083      H1086   1.082       .  S
C1084      C1085   1.386       .  A
C1084      C2486   1.446       .  S
C1085      H1087   1.082       .  S
Cu1088     N1091   2.076       .  S
Cu1089     N1099   2.102       .  S
Cu1090     N1092   2.078       .  S
Cu1090     N1098   2.079       .  S
N1091      N1092   1.322       .  A
N1091      C1095   1.347       .  A
N1092      C1093   1.347       .  A
C1093      C1094   1.382       .  A
C1093      H1096   1.082       .  S
C1094      C1095   1.381       .  A
C1094      C2430   1.442       .  S
C1095      H1097   1.082       .  S
N1098      N1099   1.325       .  A
N1098      C1102   1.345       .  A
N1099      C1100   1.352       .  A
C1100      C1101   1.386       .  A
C1100      H1103   1.082       .  S
C1101      C1102   1.379       .  A
C1101      C2438   1.447       .  S
C1102      H1104   1.082       .  S
N1105      N1106   1.325       .  A
N1105      C1109   1.352       .  A
N1105     Cu1113   2.101       .  S
N1106      C1107   1.345       .  A
N1106     Cu1112   2.078       .  S
C1107      C1108   1.379       .  A
C1107      H1110   1.082       .  S
C1108      C1109   1.386       .  A
C1108      C2422   1.447       .  S
C1109      H1111   1.082       .  S
Cu1112     N1115   2.078       .  S
Cu1113     N1123   2.101       .  S
Cu1114     N1116   2.081       .  S
Cu1114     N1122   2.081       .  S
N1115      N1116   1.322       .  A
N1115      C1119   1.347       .  A
N1116      C1117   1.348       .  A
C1117      C1118   1.383       .  A
C1117      H1120   1.082       .  S
C1118      C1119   1.382       .  A
C1118      C2423   1.444       .  S
C1119      H1121   1.082       .  S
N1122      N1123   1.325       .  A
N1122      C1126   1.345       .  A
N1123      C1124   1.351       .  A
C1124      C1125   1.386       .  A
C1124      H1127   1.082       .  S
C1125      C1126   1.379       .  A
C1125      C2442   1.447       .  S
C1126      H1128   1.082       .  S
N1129      N1130   1.325       .  A
N1129      C1133   1.352       .  A
N1129     Cu1137   2.104       .  S
N1130      C1131   1.345       .  A
N1130     Cu1136   2.078       .  S
C1131      C1132   1.378       .  A
C1131      H1134   1.082       .  S
C1132      C1133   1.387       .  A
C1132      C2428   1.447       .  S
C1133      H1135   1.082       .  S
Cu1136     N1139   2.078       .  S
Cu1137     N1147   2.104       .  S
Cu1138     N1140   2.081       .  S
Cu1138     N1146   2.081       .  S
N1139      N1140   1.322       .  A
N1139      C1143   1.347       .  A
N1140      C1141   1.348       .  A
C1141      C1142   1.383       .  A
C1141      H1144   1.082       .  S
C1142      C1143   1.382       .  A
C1142      C2424   1.444       .  S
C1143      H1145   1.082       .  S
N1146      N1147   1.325       .  A
N1146      C1150   1.345       .  A
N1147      C1148   1.352       .  A
C1148      C1149   1.386       .  A
C1148      H1151   1.082       .  S
C1149      C1150   1.379       .  A
C1149      C2419   1.448       .  S
C1150      H1152   1.082       .  S
N1153      N1154   1.325       .  A
N1153      C1157   1.352       .  A
N1153     Cu1161   2.103       .  S
N1154      C1155   1.345       .  A
N1154     Cu1160   2.078       .  S
C1155      C1156   1.378       .  A
C1155      H1158   1.082       .  S
C1156      C1157   1.387       .  A
C1156      C2434   1.447       .  S
C1157      H1159   1.082       .  S
Cu1160     N1163   2.077       .  S
Cu1161     N1171   2.103   1_655  S
Cu1162     N1164   2.077       .  S
Cu1162     N1170   2.077   1_655  S
N1163      N1164   1.322       .  A
N1163      C1167   1.347       .  A
N1164      C1165   1.347       .  A
C1165      C1166   1.382       .  A
C1165      H1168   1.082       .  S
C1166      C1167   1.382       .  A
C1166      C2418   1.443       .  S
C1167      H1169   1.082       .  S
N1170      N1171   1.325       .  A
N1170      C1174   1.345       .  A
N1171      C1172   1.352       .  A
C1172      C1173   1.387       .  A
C1172      H1175   1.082       .  S
C1173      C1174   1.378       .  A
C1173      C2415   1.447       .  S
C1174      H1176   1.082       .  S
N1177      N1178   1.325       .  A
N1177      C1181   1.352       .  A
N1177     Cu1185   2.105       .  S
N1178      C1179   1.345       .  A
N1178     Cu1184   2.080       .  S
C1179      C1180   1.379       .  A
C1179      H1182   1.082       .  S
C1180      C1181   1.387       .  A
C1180      C2544   1.448       .  S
C1181      H1183   1.082       .  S
Cu1184     N1187   2.080       .  S
Cu1185     N1195   2.105       .  S
Cu1186     N1188   2.075       .  S
Cu1186     N1194   2.075       .  S
N1187      N1188   1.322       .  A
N1187      C1191   1.348       .  A
N1188      C1189   1.346       .  A
C1189      C1190   1.381       .  A
C1189      H1192   1.082       .  S
C1190      C1191   1.383       .  A
C1190      C2417   1.443       .  S
C1191      H1193   1.082       .  S
N1194      N1195   1.325       .  A
N1194      C1198   1.344       .  A
N1195      C1196   1.352       .  A
C1196      C1197   1.387       .  A
C1196      H1199   1.082       .  S
C1197      C1198   1.378       .  A
C1197      C2421   1.447       .  S
C1198      H1200   1.082       .  S
N1201      N1202   1.325       .  A
N1201      C1205   1.352       .  A
N1201     Cu1209   2.106       .  S
N1202      C1203   1.345       .  A
N1202     Cu1208   2.078       .  S
C1203      C1204   1.378       .  A
C1203      H1206   1.082       .  S
C1204      C1205   1.387       .  A
C1204      C2411   1.448       .  S
C1205      H1207   1.082       .  S
Cu1208     N1211   2.078       .  S
Cu1209     N1219   2.106       .  S
Cu1210     N1212   2.078       .  S
Cu1210     N1218   2.078       .  S
N1211      N1212   1.322       .  A
N1211      C1215   1.347       .  A
N1212      C1213   1.347       .  A
C1213      C1214   1.382       .  A
C1213      H1216   1.082       .  S
C1214      C1215   1.382       .  A
C1214      C2414   1.443       .  S
C1215      H1217   1.082       .  S
N1218      N1219   1.325       .  A
N1218      C1222   1.345       .  A
N1219      C1220   1.352       .  A
C1220      C1221   1.387       .  A
C1220      H1223   1.082       .  S
C1221      C1222   1.379       .  A
C1221      C2450   1.449       .  S
C1222      H1224   1.082       .  S
N1225      N1226   1.325       .  A
N1225      C1229   1.352       .  A
N1225     Cu1233   2.103       .  S
N1226      C1227   1.345       .  A
N1226     Cu1232   2.080       .  S
C1227      C1228   1.379       .  A
C1227      H1230   1.082       .  S
C1228      C1229   1.387       .  A
C1228      C2410   1.448       .  S
C1229      H1231   1.082       .  S
Cu1232     N1235   2.080       .  S
Cu1233     N1243   2.103       .  S
Cu1234     N1236   2.076       .  S
Cu1234     N1242   2.077       .  S
N1235      N1236   1.322       .  A
N1235      C1239   1.347       .  A
N1236      C1237   1.347       .  A
C1237      C1238   1.381       .  A
C1237      H1240   1.082       .  S
C1238      C1239   1.382       .  A
C1238      C2413   1.443       .  S
C1239      H1241   1.082       .  S
N1242      N1243   1.325       .  A
N1242      C1246   1.345       .  A
N1243      C1244   1.352       .  A
C1244      C1245   1.387       .  A
C1244      H1247   1.082       .  S
C1245      C1246   1.378       .  A
C1245      C2407   1.446       .  S
C1246      H1248   1.082       .  S
N1249      N1250   1.325       .  A
N1249      C1253   1.351       .  A
N1249     Cu1257   2.100       .  S
N1250      C1251   1.345       .  A
N1250     Cu1256   2.081       .  S
C1251      C1252   1.379       .  A
C1251      H1254   1.082       .  S
C1252      C1253   1.386       .  A
C1252      C2536   1.447       .  S
C1253      H1255   1.082       .  S
Cu1256     N1259   2.081       .  S
Cu1257     N1267   2.100   1_556  S
Cu1258     N1260   2.078       .  S
Cu1258     N1266   2.078   1_556  S
N1259      N1260   1.322       .  A
N1259      C1263   1.348       .  A
N1260      C1261   1.347       .  A
C1261      C1262   1.382       .  A
C1261      H1264   1.082       .  S
C1262      C1263   1.382       .  A
C1262      C2405   1.444       .  S
C1263      H1265   1.082       .  S
N1266      N1267   1.325       .  A
N1266      C1270   1.345       .  A
N1267      C1268   1.351       .  A
C1268      C1269   1.386       .  A
C1268      H1271   1.082       .  S
C1269      C1270   1.379       .  A
C1269      C2403   1.446       .  S
C1270      H1272   1.082       .  S
N1273      N1274   1.325       .  A
N1273      C1277   1.352       .  A
N1273     Cu1281   2.103       .  S
N1274      C1275   1.345       .  A
N1274     Cu1280   2.078       .  S
C1275      C1276   1.379       .  A
C1275      H1278   1.082       .  S
C1276      C1277   1.387       .  A
C1276      C2412   1.448       .  S
C1277      H1279   1.082       .  S
Cu1280     N1283   2.078       .  S
Cu1281     N1291   2.103       .  S
Cu1282     N1284   2.081       .  S
Cu1282     N1290   2.081       .  S
N1283      N1284   1.322       .  A
N1283      C1287   1.347       .  A
N1284      C1285   1.348       .  A
C1285      C1286   1.383       .  A
C1285      H1288   1.082       .  S
C1286      C1287   1.382       .  A
C1286      C2406   1.444       .  S
C1287      H1289   1.082       .  S
N1290      N1291   1.325       .  A
N1290      C1294   1.346       .  A
N1291      C1292   1.351       .  A
C1292      C1293   1.386       .  A
C1292      H1295   1.082       .  S
C1293      C1294   1.379       .  A
C1293      C2416   1.447       .  S
C1294      H1296   1.082       .  S
N1297      N1298   1.325       .  A
N1297      C1301   1.351       .  A
N1297     Cu1305   2.101       .  S
N1298      C1299   1.345       .  A
N1298     Cu1304   2.076       .  S
C1299      C1300   1.378       .  A
C1299      H1302   1.082       .  S
C1300      C1301   1.386       .  A
C1300      C2399   1.446       .  S
C1301      H1303   1.082       .  S
Cu1304     N1307   2.076       .  S
Cu1305     N1315   2.101       .  S
Cu1306     N1308   2.077       .  S
Cu1306     N1314   2.077       .  S
N1307      N1308   1.322       .  A
N1307      C1311   1.346       .  A
N1308      C1309   1.347       .  A
C1309      C1310   1.382       .  A
C1309      H1312   1.082       .  S
C1310      C1311   1.381       .  A
C1310      C2401   1.442       .  S
C1311      H1313   1.082       .  S
N1314      N1315   1.325       .  A
N1314      C1318   1.344       .  A
N1315      C1316   1.352       .  A
C1316      C1317   1.386       .  A
C1316      H1319   1.082       .  S
C1317      C1318   1.378       .  A
C1317      C2528   1.446       .  S
C1318      H1320   1.082       .  S
N1321      N1322   1.325       .  A
N1321      C1325   1.352       .  A
N1321     Cu1329   2.104       .  S
N1322      C1323   1.345       .  A
N1322     Cu1328   2.081       .  S
C1323      C1324   1.379       .  A
C1323      H1326   1.082       .  S
C1324      C1325   1.387       .  A
C1324      C2397   1.448       .  S
C1325      H1327   1.082       .  S
Cu1328     N1331   2.080       .  S
Cu1329     N1339   2.103       .  S
Cu1330     N1332   2.074       .  S
Cu1330     N1338   2.075       .  S
N1331      N1332   1.322       .  A
N1331      C1335   1.348       .  A
N1332      C1333   1.346       .  A
C1333      C1334   1.381       .  A
C1333      H1336   1.082       .  S
C1334      C1335   1.383       .  A
C1334      C2402   1.443       .  S
C1335      H1337   1.082       .  S
N1338      N1339   1.325       .  A
N1338      C1342   1.344       .  A
N1339      C1340   1.352       .  A
C1340      C1341   1.387       .  A
C1340      H1343   1.082       .  S
C1341      C1342   1.378       .  A
C1341      C2404   1.446       .  S
C1342      H1344   1.082       .  S
N1345      N1346   1.324       .  A
N1345      C1349   1.352       .  A
N1345     Cu1353   2.104       .  S
N1346      C1347   1.344       .  A
N1346     Cu1352   2.073       .  S
C1347      C1348   1.378       .  A
C1347      H1350   1.082       .  S
C1348      C1349   1.387       .  A
C1348      C2393   1.446       .  S
C1349      H1351   1.082       .  S
Cu1352     N1355   2.073       .  S
Cu1353     N1363   2.104   1_554  S
Cu1354     N1356   2.080       .  S
Cu1354     N1362   2.081   1_554  S
N1355      N1356   1.322       .  A
N1355      C1359   1.346       .  A
N1356      C1357   1.347       .  A
C1357      C1358   1.382       .  A
C1357      H1360   1.082       .  S
C1358      C1359   1.380       .  A
C1358      C2395   1.442       .  S
C1359      H1361   1.082       .  S
N1362      N1363   1.325       .  A
N1362      C1366   1.346       .  A
N1363      C1364   1.352       .  A
C1364      C1365   1.386       .  A
C1364      H1367   1.082       .  S
C1365      C1366   1.379       .  A
C1365      C2409   1.448       .  S
C1366      H1368   1.082       .  S
N1369      N1370   1.325       .  A
N1369      C1373   1.352       .  A
N1369     Cu1377   2.102       .  S
N1370      C1371   1.344       .  A
N1370     Cu1376   2.075       .  S
C1371      C1372   1.378       .  A
C1371      H1374   1.082       .  S
C1372      C1373   1.386       .  A
C1372      C2400   1.446       .  S
C1373      H1375   1.082       .  S
Cu1376     N1379   2.074       .  S
Cu1377     N1387   2.102       .  S
Cu1378     N1380   2.077       .  S
Cu1378     N1386   2.077       .  S
N1379      N1380   1.322       .  A
N1379      C1383   1.346       .  A
N1380      C1381   1.347       .  A
C1381      C1382   1.382       .  A
C1381      H1384   1.082       .  S
C1382      C1383   1.381       .  A
C1382      C2396   1.442       .  S
C1383      H1385   1.082       .  S
N1386      N1387   1.325       .  A
N1386      C1390   1.345       .  A
N1387      C1388   1.352       .  A
C1388      C1389   1.386       .  A
C1388      H1391   1.082       .  S
C1389      C1390   1.378       .  A
C1389      C2391   1.447       .  S
C1390      H1392   1.082       .  S
N1393      N1394   1.325       .  A
N1393      C1397   1.352       .  A
N1393     Cu1401   2.103       .  S
N1394      C1395   1.345       .  A
N1394     Cu1400   2.077       .  S
C1395      C1396   1.378       .  A
C1395      H1398   1.082       .  S
C1396      C1397   1.387       .  A
C1396      C2504   1.447       .  S
C1397      H1399   1.082       .  S
Cu1400     N1403   2.076       .  S
Cu1401     N1411   2.103       .  S
Cu1402     N1404   2.079       .  S
Cu1402     N1410   2.079       .  S
N1403      N1404   1.322       .  A
N1403      C1407   1.347       .  A
N1404      C1405   1.347       .  A
C1405      C1406   1.382       .  A
C1405      H1408   1.082       .  S
C1406      C1407   1.381       .  A
C1406      C2390   1.442       .  S
C1407      H1409   1.082       .  S
N1410      N1411   1.325       .  A
N1410      C1414   1.345       .  A
N1411      C1412   1.352       .  A
C1412      C1413   1.386       .  A
C1412      H1415   1.082       .  S
C1413      C1414   1.379       .  A
C1413      C2387   1.447       .  S
C1414      H1416   1.082       .  S
N1417      N1418   1.324       .  A
N1417      C1421   1.352       .  A
N1417     Cu1425   2.105       .  S
N1418      C1419   1.344       .  A
N1418     Cu1424   2.073       .  S
C1419      C1420   1.378       .  A
C1419      H1422   1.082       .  S
C1420      C1421   1.387       .  A
C1420      C2436   1.447       .  S
C1421      H1423   1.082       .  S
Cu1424     N1427   2.073       .  S
Cu1425     N1435   2.105       .  S
Cu1426     N1428   2.080       .  S
Cu1426     N1434   2.081       .  S
N1427      N1428   1.322       .  A
N1427      C1431   1.346       .  A
N1428      C1429   1.348       .  A
C1429      C1430   1.383       .  A
C1429      H1432   1.082       .  S
C1430      C1431   1.380       .  A
C1430      C2389   1.442       .  S
C1431      H1433   1.082       .  S
N1434      N1435   1.325       .  A
N1434      C1438   1.345       .  A
N1435      C1436   1.352       .  A
C1436      C1437   1.387       .  A
C1436      H1439   1.082       .  S
C1437      C1438   1.379       .  A
C1437      C2385   1.448       .  S
C1438      H1440   1.082       .  S
N1441      N1442   1.325       .  A
N1441      C1445   1.352       .  A
N1441     Cu1449   2.102       .  S
N1442      C1443   1.345       .  A
N1442     Cu1448   2.078       .  S
C1443      C1444   1.379       .  A
C1443      H1446   1.082       .  S
C1444      C1445   1.386       .  A
C1444      C2381   1.447       .  S
C1445      H1447   1.082       .  S
Cu1448     N1451   2.077       .  S
Cu1449     N1459   2.102       .  S
Cu1450     N1452   2.079       .  S
Cu1450     N1458   2.079       .  S
N1451      N1452   1.322       .  A
N1451      C1455   1.347       .  A
N1452      C1453   1.347       .  A
C1453      C1454   1.382       .  A
C1453      H1456   1.082       .  S
C1454      C1455   1.381       .  A
C1454      C2384   1.443       .  S
C1455      H1457   1.082       .  S
N1458      N1459   1.325       .  A
N1458      C1462   1.345       .  A
N1459      C1460   1.351       .  A
C1460      C1461   1.386       .  A
C1460      H1463   1.082       .  S
C1461      C1462   1.379       .  A
C1461      C2392   1.447       .  S
C1462      H1464   1.082       .  S
N1465      N1466   1.324       .  A
N1465      C1469   1.351       .  A
N1465     Cu1473   2.101       .  S
N1466      C1467   1.345       .  A
N1466     Cu1472   2.077       .  S
C1467      C1468   1.379       .  A
C1467      H1470   1.082       .  S
C1468      C1469   1.386       .  A
C1468      C2380   1.447       .  S
C1469      H1471   1.082       .  S
Cu1472     N1475   2.077       .  S
Cu1473     N1483   2.101       .  S
Cu1474     N1476   2.081       .  S
Cu1474     N1482   2.081       .  S
N1475      N1476   1.322       .  A
N1475      C1479   1.347       .  A
N1476      C1477   1.347       .  A
C1477      C1478   1.382       .  A
C1477      H1480   1.082       .  S
C1478      C1479   1.381       .  A
C1478      C2383   1.443       .  S
C1479      H1481   1.082       .  S
N1482      N1483   1.325       .  A
N1482      C1486   1.346       .  A
N1483      C1484   1.351       .  A
C1484      C1485   1.386       .  A
C1484      H1487   1.082       .  S
C1485      C1486   1.380       .  A
C1485      C2522   1.448       .  S
C1486      H1488   1.082       .  S
N1489      N1490   1.325       .  A
N1489      C1493   1.352       .  A
N1489     Cu1497   2.103       .  S
N1490      C1491   1.345       .  A
N1490     Cu1496   2.077       .  S
C1491      C1492   1.378       .  A
C1491      H1494   1.082       .  S
C1492      C1493   1.387       .  A
C1492      C2373   1.446       .  S
C1493      H1495   1.082       .  S
Cu1496     N1499   2.077       .  S
Cu1497     N1507   2.102       .  S
Cu1498     N1500   2.076       .  S
Cu1498     N1506   2.077       .  S
N1499      N1500   1.322       .  A
N1499      C1503   1.347       .  A
N1500      C1501   1.346       .  A
C1501      C1502   1.381       .  A
C1501      H1504   1.082       .  S
C1502      C1503   1.382       .  A
C1502      C2377   1.442       .  S
C1503      H1505   1.082       .  S
N1506      N1507   1.325       .  A
N1506      C1510   1.345       .  A
N1507      C1508   1.352       .  A
C1508      C1509   1.387       .  A
C1508      H1511   1.082       .  S
C1509      C1510   1.378       .  A
C1509      C2376   1.447       .  S
C1510      H1512   1.082       .  S
N1513      N1514   1.324       .  A
N1513      C1517   1.352       .  A
N1513     Cu1521   2.103       .  S
N1514      C1515   1.344       .  A
N1514     Cu1520   2.074       .  S
C1515      C1516   1.378       .  A
C1515      H1518   1.082       .  S
C1516      C1517   1.387       .  A
C1516      C2382   1.446       .  S
C1517      H1519   1.082       .  S
Cu1520     N1523   2.074       .  S
Cu1521     N1531   2.103       .  S
Cu1522     N1524   2.079       .  S
Cu1522     N1530   2.080       .  S
N1523      N1524   1.322       .  A
N1523      C1527   1.346       .  A
N1524      C1525   1.347       .  A
C1525      C1526   1.382       .  A
C1525      H1528   1.082       .  S
C1526      C1527   1.381       .  A
C1526      C2378   1.442       .  S
C1527      H1529   1.082       .  S
N1530      N1531   1.325       .  A
N1530      C1534   1.345       .  A
N1531      C1532   1.352       .  A
C1532      C1533   1.386       .  A
C1532      H1535   1.082       .  S
C1533      C1534   1.379       .  A
C1533      C2388   1.447       .  S
C1534      H1536   1.082       .  S
N1537      N1538   1.325       .  A
N1537      C1541   1.352       .  A
N1537     Cu1545   2.102       .  S
N1538      C1539   1.345       .  A
N1538     Cu1544   2.080   1_655  S
C1539      C1540   1.379       .  A
C1539      H1542   1.082       .  S
C1540      C1541   1.386       .  A
C1540      C2484   1.447       .  S
C1541      H1543   1.082       .  S
Cu1544     N1547   2.079       .  S
Cu1545     N1555   2.102   1_655  S
Cu1546     N1548   2.078       .  S
Cu1546     N1554   2.078       .  S
N1547      N1548   1.322       .  A
N1547      C1551   1.347       .  A
N1548      C1549   1.347       .  A
C1549      C1550   1.382       .  A
C1549      H1552   1.082       .  S
C1550      C1551   1.382       .  A
C1550      C2372   1.443       .  S
C1551      H1553   1.082       .  S
N1554      N1555   1.325       .  A
N1554      C1558   1.345       .  A
N1555      C1556   1.351       .  A
C1556      C1557   1.386       .  A
C1556      H1559   1.082       .  S
C1557      C1558   1.379       .  A
C1557      C2573   1.447       .  S
C1558      H1560   1.082       .  S
N1561      N1562   1.325       .  A
N1561      C1565   1.352       .  A
N1561     Cu1569   2.103       .  S
N1562      C1563   1.345       .  A
N1562     Cu1568   2.080       .  S
C1563      C1564   1.379       .  A
C1563      H1566   1.082       .  S
C1564      C1565   1.387       .  A
C1564      C2590   1.448       .  S
C1565      H1567   1.082       .  S
Cu1568     N1571   2.079       .  S
Cu1569     N1579   2.103       .  S
Cu1570     N1572   2.078       .  S
Cu1570     N1578   2.079       .  S
N1571      N1572   1.322       .  A
N1571      C1575   1.347       .  A
N1572      C1573   1.347       .  A
C1573      C1574   1.382       .  A
C1573      H1576   1.082       .  S
C1574      C1575   1.382       .  A
C1574      C2371   1.443       .  S
C1575      H1577   1.082       .  S
N1578      N1579   1.325       .  A
N1578      C1582   1.345       .  A
N1579      C1580   1.352       .  A
C1580      C1581   1.387       .  A
C1580      H1583   1.082       .  S
C1581      C1582   1.379       .  A
C1581      C2369   1.447       .  S
C1582      H1584   1.082       .  S
N1585      N1586   1.325       .  A
N1585      C1589   1.352       .  A
N1585     Cu1593   2.104       .  S
N1586      C1587   1.345       .  A
N1586     Cu1592   2.079       .  S
C1587      C1588   1.379       .  A
C1587      H1590   1.082       .  S
C1588      C1589   1.387       .  A
C1588      C2519   1.448       .  S
C1589      H1591   1.082       .  S
Cu1592     N1595   2.078       .  S
Cu1593     N1603   2.104       .  S
Cu1594     N1596   2.078       .  S
Cu1594     N1602   2.078       .  S
N1595      N1596   1.322       .  A
N1595      C1599   1.347       .  A
N1596      C1597   1.347       .  A
C1597      C1598   1.382       .  A
C1597      H1600   1.082       .  S
C1598      C1599   1.382       .  A
C1598      C2368   1.443       .  S
C1599      H1601   1.082       .  S
N1602      N1603   1.325       .  A
N1602      C1606   1.345       .  A
N1603      C1604   1.352       .  A
C1604      C1605   1.387       .  A
C1604      H1607   1.082       .  S
C1605      C1606   1.379       .  A
C1605      C2366   1.447       .  S
C1606      H1608   1.082       .  S
N1609      N1610   1.325       .  A
N1609      C1613   1.352       .  A
N1609     Cu1617   2.102       .  S
N1610      C1611   1.345       .  A
N1610     Cu1616   2.081       .  S
C1611      C1612   1.379       .  A
C1611      H1614   1.082       .  S
C1612      C1613   1.386       .  A
C1612      C2552   1.447       .  S
C1613      H1615   1.082       .  S
Cu1616     N1619   2.080       .  S
Cu1617     N1627   2.102       .  S
Cu1618     N1620   2.076       .  S
Cu1618     N1626   2.076       .  S
N1619      N1620   1.322       .  A
N1619      C1623   1.348       .  A
N1620      C1621   1.346       .  A
C1621      C1622   1.381       .  A
C1621      H1624   1.082       .  S
C1622      C1623   1.383       .  A
C1622      C2367   1.443       .  S
C1623      H1625   1.082       .  S
N1626      N1627   1.324       .  A
N1626      C1630   1.345       .  A
N1627      C1628   1.352       .  A
C1628      C1629   1.387       .  A
C1628      H1631   1.082       .  S
C1629      C1630   1.379       .  A
C1629      C2394   1.446       .  S
C1630      H1632   1.082       .  S
N1633      N1634   1.325       .  A
N1633      C1637   1.352       .  A
N1633     Cu1641   2.102   1_565  S
N1634      C1635   1.345       .  A
N1634     Cu1640   2.079   1_565  S
C1635      C1636   1.379       .  A
C1635      H1638   1.082       .  S
C1636      C1637   1.387       .  A
C1636      C2557   1.448       .  S
C1637      H1639   1.082       .  S
Cu1640     N1643   2.079       .  S
Cu1641     N1651   2.102       .  S
Cu1642     N1644   2.080       .  S
Cu1642     N1650   2.080       .  S
N1643      N1644   1.322       .  A
N1643      C1647   1.347       .  A
N1644      C1645   1.348       .  A
C1645      C1646   1.382       .  A
C1645      H1648   1.082       .  S
C1646      C1647   1.382       .  A
C1646      C2364   1.444       .  S
C1647      H1649   1.082       .  S
N1650      N1651   1.325       .  A
N1650      C1654   1.345       .  A
N1651      C1652   1.352       .  A
C1652      C1653   1.386       .  A
C1652      H1655   1.082       .  S
C1653      C1654   1.379       .  A
C1653      C2361   1.447       .  S
C1654      H1656   1.082       .  S
N1657      N1658   1.325       .  A
N1657      C1661   1.351       .  A
N1657     Cu1665   2.103       .  S
N1658      C1659   1.345       .  A
N1658     Cu1664   2.080       .  S
C1659      C1660   1.379       .  A
C1659      H1662   1.082       .  S
C1660      C1661   1.386       .  A
C1660      C2360   1.447       .  S
C1661      H1663   1.082       .  S
Cu1664     N1667   2.080       .  S
Cu1665     N1675   2.103       .  S
Cu1666     N1668   2.077       .  S
Cu1666     N1674   2.077       .  S
N1667      N1668   1.322       .  A
N1667      C1671   1.347       .  A
N1668      C1669   1.347       .  A
C1669      C1670   1.382       .  A
C1669      H1672   1.082       .  S
C1670      C1671   1.382       .  A
C1670      C2363   1.444       .  S
C1671      H1673   1.082       .  S
N1674      N1675   1.324       .  A
N1674      C1678   1.345       .  A
N1675      C1676   1.352       .  A
C1676      C1677   1.387       .  A
C1676      H1679   1.082       .  S
C1677      C1678   1.378       .  A
C1677      C2365   1.447       .  S
C1678      H1680   1.082       .  S
N1681      N1682   1.325       .  A
N1681      C1685   1.352       .  A
N1681     Cu1689   2.103       .  S
N1682      C1683   1.345       .  A
N1682     Cu1688   2.077       .  S
C1683      C1684   1.379       .  A
C1683      H1686   1.082       .  S
C1684      C1685   1.387       .  A
C1684      C2353   1.447       .  S
C1685      H1687   1.082       .  S
Cu1688     N1691   2.076       .  S
Cu1689     N1699   2.103       .  S
Cu1690     N1692   2.079       .  S
Cu1690     N1698   2.079       .  S
N1691      N1692   1.322       .  A
N1691      C1695   1.346       .  A
N1692      C1693   1.347       .  A
C1693      C1694   1.382       .  A
C1693      H1696   1.082       .  S
C1694      C1695   1.381       .  A
C1694      C2357   1.443       .  S
C1695      H1697   1.082       .  S
N1698      N1699   1.325       .  A
N1698      C1702   1.345       .  A
N1699      C1700   1.352       .  A
C1700      C1701   1.387       .  A
C1700      H1703   1.082       .  S
C1701      C1702   1.379       .  A
C1701      C2355   1.447       .  S
C1702      H1704   1.082       .  S
N1705      N1706   1.325       .  A
N1705      C1709   1.351       .  A
N1705     Cu1713   2.102       .  S
N1706      C1707   1.346       .  A
N1706     Cu1712   2.081       .  S
C1707      C1708   1.380       .  A
C1707      H1710   1.082       .  S
C1708      C1709   1.386       .  A
C1708      C2453   1.448       .  S
C1709      H1711   1.082       .  S
Cu1712     N1715   2.081       .  S
Cu1713     N1723   2.102       .  S
Cu1714     N1716   2.076       .  S
Cu1714     N1722   2.076       .  S
N1715      N1716   1.322       .  A
N1715      C1719   1.347       .  A
N1716      C1717   1.347       .  A
C1717      C1718   1.381       .  A
C1717      H1720   1.082       .  S
C1718      C1719   1.382       .  A
C1718      C2358   1.443       .  S
C1719      H1721   1.082       .  S
N1722      N1723   1.324       .  A
N1722      C1726   1.345       .  A
N1723      C1724   1.352       .  A
C1724      C1725   1.387       .  A
C1724      H1727   1.082       .  S
C1725      C1726   1.379       .  A
C1725      C2351   1.447       .  S
C1726      H1728   1.082       .  S
N1729      N1730   1.324       .  A
N1729      C1733   1.352       .  A
N1729     Cu1737   2.103       .  S
N1730      C1731   1.344       .  A
N1730     Cu1736   2.075       .  S
C1731      C1732   1.378       .  A
C1731      H1734   1.082       .  S
C1732      C1733   1.387       .  A
C1732      C2347   1.447       .  S
C1733      H1735   1.082       .  S
Cu1736     N1739   2.075       .  S
Cu1737     N1747   2.103       .  S
Cu1738     N1740   2.079       .  S
Cu1738     N1746   2.080       .  S
N1739      N1740   1.322       .  A
N1739      C1743   1.347       .  A
N1740      C1741   1.347       .  A
C1741      C1742   1.382       .  A
C1741      H1744   1.082       .  S
C1742      C1743   1.381       .  A
C1742      C2349   1.443       .  S
C1743      H1745   1.082       .  S
N1746      N1747   1.325       .  A
N1746      C1750   1.345       .  A
N1747      C1748   1.352       .  A
C1748      C1749   1.386       .  A
C1748      H1751   1.082       .  S
C1749      C1750   1.379       .  A
C1749      C2359   1.447       .  S
C1750      H1752   1.082       .  S
N1753      N1754   1.325       .  A
N1753      C1757   1.353       .  A
N1753     Cu1761   2.108       .  S
N1754      C1755   1.345       .  A
N1754     Cu1760   2.077       .  S
C1755      C1756   1.378       .  A
C1755      H1758   1.082       .  S
C1756      C1757   1.388       .  A
C1756      C2508   1.448       .  S
C1757      H1759   1.082       .  S
Cu1760     N1763   2.077       .  S
Cu1761     N1771   2.108       .  S
Cu1762     N1764   2.078       .  S
Cu1762     N1770   2.079       .  S
N1763      N1764   1.322       .  A
N1763      C1767   1.347       .  A
N1764      C1765   1.347       .  A
C1765      C1766   1.382       .  A
C1765      H1768   1.082       .  S
C1766      C1767   1.382       .  A
C1766      C2350   1.443       .  S
C1767      H1769   1.082       .  S
N1770      N1771   1.325       .  A
N1770      C1774   1.345       .  A
N1771      C1772   1.353       .  A
C1772      C1773   1.388       .  A
C1772      H1775   1.082       .  S
C1773      C1774   1.379       .  A
C1773      C2587   1.449       .  S
C1774      H1776   1.082       .  S
N1777      N1778   1.325       .  A
N1777      C1781   1.352       .  A
N1777     Cu1785   2.102       .  S
N1778      C1779   1.344       .  A
N1778     Cu1784   2.076       .  S
C1779      C1780   1.378       .  A
C1779      H1782   1.082       .  S
C1780      C1781   1.387       .  A
C1780      C2408   1.446       .  S
C1781      H1783   1.082       .  S
Cu1784     N1787   2.076       .  S
Cu1785     N1795   2.102       .  S
Cu1786     N1788   2.081       .  S
Cu1786     N1794   2.082       .  S
N1787      N1788   1.322       .  A
N1787      C1791   1.347       .  A
N1788      C1789   1.348       .  A
C1789      C1790   1.383       .  A
C1789      H1792   1.082       .  S
C1790      C1791   1.381       .  A
C1790      C2345   1.444       .  S
C1791      H1793   1.082       .  S
N1794      N1795   1.325       .  A
N1794      C1798   1.346       .  A
N1795      C1796   1.351       .  A
C1796      C1797   1.386       .  A
C1796      H1799   1.082       .  S
C1797      C1798   1.379       .  A
C1797      C2386   1.448       .  S
C1798      H1800   1.082       .  S
N1801      N1802   1.325       .  A
N1801      C1805   1.352       .  A
N1801     Cu1809   2.103       .  S
N1802      C1803   1.345       .  A
N1802     Cu1808   2.079       .  S
C1803      C1804   1.379       .  A
C1803      H1806   1.082       .  S
C1804      C1805   1.387       .  A
C1804      C2356   1.447       .  S
C1805      H1807   1.082       .  S
Cu1808     N1811   2.078       .  S
Cu1809     N1819   2.103       .  S
Cu1810     N1812   2.079       .  S
Cu1810     N1818   2.079       .  S
N1811      N1812   1.322       .  A
N1811      C1815   1.347       .  A
N1812      C1813   1.347       .  A
C1813      C1814   1.382       .  A
C1813      H1816   1.082       .  S
C1814      C1815   1.382       .  A
C1814      C2346   1.444       .  S
C1815      H1817   1.082       .  S
N1818      N1819   1.325       .  A
N1818      C1822   1.345       .  A
N1819      C1820   1.352       .  A
C1820      C1821   1.386       .  A
C1820      H1823   1.082       .  S
C1821      C1822   1.379       .  A
C1821      C2348   1.447       .  S
C1822      H1824   1.082       .  S
N1825      N1826   1.325       .  A
N1825      C1829   1.352       .  A
N1825     Cu1833   2.105       .  S
N1826      C1827   1.345       .  A
N1826     Cu1832   2.076       .  S
C1827      C1828   1.378       .  A
C1827      H1830   1.082       .  S
C1828      C1829   1.387       .  A
C1828      C2370   1.447       .  S
C1829      H1831   1.082       .  S
Cu1832     N1835   2.076       .  S
Cu1833     N1843   2.105       .  S
Cu1834     N1836   2.076       .  S
Cu1834     N1842   2.077       .  S
N1835      N1836   1.322       .  A
N1835      C1839   1.347       .  A
N1836      C1837   1.347       .  A
C1837      C1838   1.381       .  A
C1837      H1840   1.082       .  S
C1838      C1839   1.381       .  A
C1838      C2343   1.442       .  S
C1839      H1841   1.082       .  S
N1842      N1843   1.325       .  A
N1842      C1846   1.345       .  A
N1843      C1844   1.352       .  A
C1844      C1845   1.387       .  A
C1844      H1847   1.082       .  S
C1845      C1846   1.378       .  A
C1845      C2341   1.448       .  S
C1846      H1848   1.082       .  S
N1849      N1850   1.325       .  A
N1849      C1853   1.352       .  A
N1849     Cu1857   2.103       .  S
N1850      C1851   1.345       .  A
N1850     Cu1856   2.076       .  S
C1851      C1852   1.378       .  A
C1851      H1854   1.082       .  S
C1852      C1853   1.387       .  A
C1852      C2354   1.447       .  S
C1853      H1855   1.082       .  S
Cu1856     N1859   2.075       .  S
Cu1857     N1867   2.103       .  S
Cu1858     N1860   2.078       .  S
Cu1858     N1866   2.079       .  S
N1859      N1860   1.322       .  A
N1859      C1863   1.346       .  A
N1860      C1861   1.347       .  A
C1861      C1862   1.382       .  A
C1861      H1864   1.082       .  S
C1862      C1863   1.381       .  A
C1862      C2344   1.442       .  S
C1863      H1865   1.082       .  S
N1866      N1867   1.325       .  A
N1866      C1870   1.345       .  A
N1867      C1868   1.352       .  A
C1868      C1869   1.387       .  A
C1868      H1871   1.082       .  S
C1869      C1870   1.379       .  A
C1869      C2426   1.448       .  S
C1870      H1872   1.082       .  S
N1873      N1874   1.325       .  A
N1873      C1877   1.352       .  A
N1873     Cu1881   2.104       .  S
N1874      C1875   1.344       .  A
N1874     Cu1880   2.075       .  S
C1875      C1876   1.378       .  A
C1875      H1878   1.082       .  S
C1876      C1877   1.387       .  A
C1876      C2492   1.446       .  S
C1877      H1879   1.082       .  S
Cu1880     N1883   2.075       .  S
Cu1881     N1891   2.104   1_554  S
Cu1882     N1884   2.079       .  S
Cu1882     N1890   2.079   1_554  S
N1883      N1884   1.322       .  A
N1883      C1887   1.346       .  A
N1884      C1885   1.347       .  A
C1885      C1886   1.382       .  A
C1885      H1888   1.082       .  S
C1886      C1887   1.381       .  A
C1886      C2339   1.443       .  S
C1887      H1889   1.082       .  S
N1890      N1891   1.325       .  A
N1890      C1894   1.345       .  A
N1891      C1892   1.352       .  A
C1892      C1893   1.387       .  A
C1892      H1895   1.082       .  S
C1893      C1894   1.378       .  A
C1893      C2420   1.448       .  S
C1894      H1896   1.082       .  S
N1897      N1898   1.325       .  A
N1897      C1901   1.352       .  A
N1897     Cu1905   2.103       .  S
N1898      C1899   1.345       .  A
N1898     Cu1904   2.078       .  S
C1899      C1900   1.379       .  A
C1899      H1902   1.082       .  S
C1900      C1901   1.387       .  A
C1900      C2338   1.448       .  S
C1901      H1903   1.082       .  S
Cu1904     N1907   2.077       .  S
Cu1905     N1915   2.103       .  S
Cu1906     N1908   2.078       .  S
Cu1906     N1914   2.078       .  S
N1907      N1908   1.322       .  A
N1907      C1911   1.347       .  A
N1908      C1909   1.347       .  A
C1909      C1910   1.382       .  A
C1909      H1912   1.082       .  S
C1910      C1911   1.381       .  A
C1910      C2340   1.443       .  S
C1911      H1913   1.082       .  S
N1914      N1915   1.325       .  A
N1914      C1918   1.345       .  A
N1915      C1916   1.351       .  A
C1916      C1917   1.386       .  A
C1916      H1919   1.082       .  S
C1917      C1918   1.378       .  A
C1917      C2532   1.446       .  S
C1918      H1920   1.082       .  S
N1921      N1922   1.325       .  A
N1921      C1925   1.352       .  A
N1921     Cu1929   2.104       .  S
N1922      C1923   1.345       .  A
N1922     Cu1928   2.077       .  S
C1923      C1924   1.378       .  A
C1923      H1926   1.082       .  S
C1924      C1925   1.387       .  A
C1924      C2379   1.447       .  S
C1925      H1927   1.082       .  S
Cu1928     N1931   2.076       .  S
Cu1929     N1939   2.104       .  S
Cu1930     N1932   2.077       .  S
Cu1930     N1938   2.077       .  S
N1931      N1932   1.322       .  A
N1931      C1935   1.347       .  A
N1932      C1933   1.347       .  A
C1933      C1934   1.381       .  A
C1933      H1936   1.082       .  S
C1934      C1935   1.382       .  A
C1934      C2336   1.442       .  S
C1935      H1937   1.082       .  S
N1938      N1939   1.325       .  A
N1938      C1942   1.345       .  A
N1939      C1940   1.352       .  A
C1940      C1941   1.387       .  A
C1940      H1943   1.082       .  S
C1941      C1942   1.379       .  A
C1941      C2337   1.448       .  S
C1942      H1944   1.082       .  S
N1945      N1946   1.324       .  A
N1945      C1949   1.351       .  A
N1945     Cu1953   2.101       .  S
N1946      C1947   1.345       .  A
N1946     Cu1952   2.076       .  S
C1947      C1948   1.379       .  A
C1947      H1950   1.082       .  S
C1948      C1949   1.386       .  A
C1948      C2444   1.446       .  S
C1949      H1951   1.082       .  S
Cu1952     N1955   2.075       .  S
Cu1953     N1963   2.101       .  S
Cu1954     N1956   2.080       .  S
Cu1954     N1962   2.081       .  S
N1955      N1956   1.322       .  A
N1955      C1959   1.346       .  A
N1956      C1957   1.347       .  A
C1957      C1958   1.382       .  A
C1957      H1960   1.082       .  S
C1958      C1959   1.381       .  A
C1958      C2335   1.442       .  S
C1959      H1961   1.082       .  S
N1962      N1963   1.325       .  A
N1962      C1966   1.346       .  A
N1963      C1964   1.351       .  A
C1964      C1965   1.386       .  A
C1964      H1967   1.082       .  S
C1965      C1966   1.379       .  A
C1965      C2333   1.447       .  S
C1966      H1968   1.082       .  S
N1969      N1970   1.324       .  A
N1969      C1973   1.352       .  A
N1969     Cu1977   2.104       .  S
N1970      C1971   1.344       .  A
N1970     Cu1976   2.075       .  S
C1971      C1972   1.378       .  A
C1971      H1974   1.082       .  S
C1972      C1973   1.388       .  A
C1972      C2329   1.447       .  S
C1973      H1975   1.082       .  S
Cu1976     N1979   2.074       .  S
Cu1977     N1987   2.104       .  S
Cu1978     N1980   2.079       .  S
Cu1978     N1986   2.080       .  S
N1979      N1980   1.322       .  A
N1979      C1983   1.346       .  A
N1980      C1981   1.347       .  A
C1981      C1982   1.382       .  A
C1981      H1984   1.082       .  S
C1982      C1983   1.381       .  A
C1982      C2332   1.442       .  S
C1983      H1985   1.082       .  S
N1986      N1987   1.325       .  A
N1986      C1990   1.345       .  A
N1987      C1988   1.351       .  A
C1988      C1989   1.386       .  A
C1988      H1991   1.082       .  S
C1989      C1990   1.379       .  A
C1989      C2334   1.447       .  S
C1990      H1992   1.082       .  S
N1993      N1994   1.325       .  A
N1993      C1997   1.352       .  A
N1993     Cu2001   2.102       .  S
N1994      C1995   1.345       .  A
N1994     Cu2000   2.078       .  S
C1995      C1996   1.379       .  A
C1995      H1998   1.082       .  S
C1996      C1997   1.386       .  A
C1996      C2375   1.447       .  S
C1997      H1999   1.082       .  S
Cu2000     N2003   2.078       .  S
Cu2001     N2011   2.102       .  S
Cu2002     N2004   2.077       .  S
Cu2002     N2010   2.077       .  S
N2003      N2004   1.322       .  A
N2003      C2007   1.347       .  A
N2004      C2005   1.347       .  A
C2005      C2006   1.382       .  A
C2005      H2008   1.082       .  S
C2006      C2007   1.382       .  A
C2006      C2331   1.442       .  S
C2007      H2009   1.082       .  S
N2010      N2011   1.325       .  A
N2010      C2014   1.345       .  A
N2011      C2012   1.352       .  A
C2012      C2013   1.387       .  A
C2012      H2015   1.082       .  S
C2013      C2014   1.378       .  A
C2013      C2475   1.447       .  S
C2014      H2016   1.082       .  S
N2017      N2018   1.324       .  A
N2017      C2021   1.352       .  A
N2017     Cu2025   2.102       .  S
N2018      C2019   1.344       .  A
N2018     Cu2024   2.075       .  S
C2019      C2020   1.378       .  A
C2019      H2022   1.082       .  S
C2020      C2021   1.387       .  A
C2020      C2324   1.446       .  S
C2021      H2023   1.082       .  S
Cu2024     N2027   2.074       .  S
Cu2025     N2035   2.103       .  S
Cu2026     N2028   2.081       .  S
Cu2026     N2034   2.081       .  S
N2027      N2028   1.322       .  A
N2027      C2031   1.346       .  A
N2028      C2029   1.348       .  A
C2029      C2030   1.383       .  A
C2029      H2032   1.082       .  S
C2030      C2031   1.381       .  A
C2030      C2327   1.443       .  S
C2031      H2033   1.082       .  S
N2034      N2035   1.325       .  A
N2034      C2038   1.345       .  A
N2035      C2036   1.352       .  A
C2036      C2037   1.386       .  A
C2036      H2039   1.082       .  S
C2037      C2038   1.379       .  A
C2037      C2325   1.448       .  S
C2038      H2040   1.082       .  S
N2041      N2042   1.325       .  A
N2041      C2045   1.352       .  A
N2041     Cu2049   2.102       .  S
N2042      C2043   1.345       .  A
N2042     Cu2048   2.079       .  S
C2043      C2044   1.379       .  A
C2043      H2046   1.082       .  S
C2044      C2045   1.387       .  A
C2044      C2342   1.448       .  S
C2045      H2047   1.082       .  S
Cu2048     N2051   2.079       .  S
Cu2049     N2059   2.102       .  S
Cu2050     N2052   2.076       .  S
Cu2050     N2058   2.077       .  S
N2051      N2052   1.322       .  A
N2051      C2055   1.347       .  A
N2052      C2053   1.347       .  A
C2053      C2054   1.382       .  A
C2053      H2056   1.082       .  S
C2054      C2055   1.382       .  A
C2054      C2328   1.443       .  S
C2055      H2057   1.082       .  S
N2058      N2059   1.325       .  A
N2058      C2062   1.345       .  A
N2059      C2060   1.351       .  A
C2060      C2061   1.386       .  A
C2060      H2063   1.082       .  S
C2061      C2062   1.378       .  A
C2061      C2530   1.446       .  S
C2062      H2064   1.082       .  S
N2065      N2066   1.325       .  A
N2065      C2069   1.352       .  A
N2065     Cu2073   2.102       .  S
N2066      C2067   1.345       .  A
N2066     Cu2072   2.079       .  S
C2067      C2068   1.379       .  A
C2067      H2070   1.082       .  S
C2068      C2069   1.386       .  A
C2068      C2352   1.447       .  S
C2069      H2071   1.082       .  S
Cu2072     N2075   2.079       .  S
Cu2073     N2083   2.102       .  S
Cu2074     N2076   2.081       .  S
Cu2074     N2082   2.081       .  S
N2075      N2076   1.322       .  A
N2075      C2079   1.347       .  A
N2076      C2077   1.347       .  A
C2077      C2078   1.382       .  A
C2077      H2080   1.082       .  S
C2078      C2079   1.382       .  A
C2078      C2321   1.444       .  S
C2079      H2081   1.082       .  S
N2082      N2083   1.325       .  A
N2082      C2086   1.345       .  A
N2083      C2084   1.352       .  A
C2084      C2085   1.386       .  A
C2084      H2087   1.082       .  S
C2085      C2086   1.379       .  A
C2085      C2555   1.448       .  S
C2086      H2088   1.082       .  S
N2089      N2090   1.325       .  A
N2089      C2093   1.352       .  A
N2089     Cu2097   2.104       .  S
N2090      C2091   1.345       .  A
N2090     Cu2096   2.081       .  S
C2091      C2092   1.379       .  A
C2091      H2094   1.082       .  S
C2092      C2093   1.387       .  A
C2092      C2326   1.448       .  S
C2093      H2095   1.082       .  S
Cu2096     N2099   2.081       .  S
Cu2097     N2107   2.104       .  S
Cu2098     N2100   2.077       .  S
Cu2098     N2106   2.077       .  S
N2099      N2100   1.322       .  A
N2099      C2103   1.348       .  A
N2100      C2101   1.347       .  A
C2101      C2102   1.382       .  A
C2101      H2104   1.082       .  S
C2102      C2103   1.383       .  A
C2102      C2322   1.444       .  S
C2103      H2105   1.082       .  S
N2106      N2107   1.325       .  A
N2106      C2110   1.345       .  A
N2107      C2108   1.352       .  A
C2108      C2109   1.387       .  A
C2108      H2111   1.082       .  S
C2109      C2110   1.378       .  A
C2109      C2330   1.447       .  S
C2110      H2112   1.082       .  S
N2113      N2114   1.324       .  A
N2113      C2117   1.352       .  A
N2113     Cu2121   2.102       .  S
N2114      C2115   1.345       .  A
N2114     Cu2120   2.076       .  S
C2115      C2116   1.379       .  A
C2115      H2118   1.082       .  S
C2116      C2117   1.387       .  A
C2116      C2585   1.447       .  S
C2117      H2119   1.082       .  S
Cu2120     N2123   2.075       .  S
Cu2121     N2131   2.102       .  S
Cu2122     N2124   2.080       .  S
Cu2122     N2130   2.080       .  S
N2123      N2124   1.322       .  A
N2123      C2127   1.346       .  A
N2124      C2125   1.347       .  A
C2125      C2126   1.382       .  A
C2125      H2128   1.082       .  S
C2126      C2127   1.381       .  A
C2126      C2320   1.442       .  S
C2127      H2129   1.082       .  S
N2130      N2131   1.325       .  A
N2130      C2134   1.345       .  A
N2131      C2132   1.351       .  A
C2132      C2133   1.386       .  A
C2132      H2135   1.082       .  S
C2133      C2134   1.379       .  A
C2133      C2317   1.447       .  S
C2134      H2136   1.082       .  S
N2137      N2138   1.325       .  A
N2137      C2141   1.351       .  A
N2137     Cu2145   2.102       .  S
N2138      C2139   1.345       .  A
N2138     Cu2144   2.076       .  S
C2139      C2140   1.379       .  A
C2139      H2142   1.082       .  S
C2140      C2141   1.387       .  A
C2140      C2362   1.447       .  S
C2141      H2143   1.082       .  S
Cu2144     N2147   2.076       .  S
Cu2145     N2155   2.102       .  S
Cu2146     N2148   2.078       .  S
Cu2146     N2154   2.078       .  S
N2147      N2148   1.322       .  A
N2147      C2151   1.347       .  A
N2148      C2149   1.347       .  A
C2149      C2150   1.382       .  A
C2149      H2152   1.082       .  S
C2150      C2151   1.381       .  A
C2150      C2319   1.442       .  S
C2151      H2153   1.082       .  S
N2154      N2155   1.325       .  A
N2154      C2158   1.345       .  A
N2155      C2156   1.352       .  A
C2156      C2157   1.386       .  A
C2156      H2159   1.082       .  S
C2157      C2158   1.379       .  A
C2157      C2316   1.447       .  S
C2158      H2160   1.082       .  S
N2161      N2162   1.325       .  A
N2161      C2165   1.352       .  A
N2161     Cu2169   2.105   1_455  S
N2162      C2163   1.346       .  A
N2162     Cu2168   2.081       .  S
C2163      C2164   1.379       .  A
C2163      H2166   1.082       .  S
C2164      C2165   1.387       .  A
C2164      C2398   1.448       .  S
C2165      H2167   1.082       .  S
Cu2168     N2171   2.081       .  S
Cu2169     N2179   2.104       .  S
Cu2170     N2172   2.074       .  S
Cu2170     N2178   2.075   1_455  S
N2171      N2172   1.322       .  A
N2171      C2175   1.347       .  A
N2172      C2173   1.347       .  A
C2173      C2174   1.381       .  A
C2173      H2176   1.082       .  S
C2174      C2175   1.382       .  A
C2174      C2314   1.443       .  S
C2175      H2177   1.082       .  S
N2178      N2179   1.325       .  A
N2178      C2182   1.344       .  A
N2179      C2180   1.352       .  A
C2180      C2181   1.387       .  A
C2180      H2183   1.082       .  S
C2181      C2182   1.378       .  A
C2181      C2311   1.447       .  S
C2182      H2184   1.082       .  S
N2185      N2186   1.324       .  A
N2185      C2189   1.352       .  A
N2185     Cu2193   2.101       .  S
N2186      C2187   1.344       .  A
N2186     Cu2192   2.075       .  S
C2187      C2188   1.378       .  A
C2187      H2190   1.082       .  S
C2188      C2189   1.387       .  A
C2188      C2323   1.446       .  S
C2189      H2191   1.082       .  S
Cu2192     N2195   2.075       .  S
Cu2193     N2203   2.101       .  S
Cu2194     N2196   2.080       .  S
Cu2194     N2202   2.080       .  S
N2195      N2196   1.322       .  A
N2195      C2199   1.346       .  A
N2196      C2197   1.348       .  A
C2197      C2198   1.382       .  A
C2197      H2200   1.082       .  S
C2198      C2199   1.381       .  A
C2198      C2313   1.443       .  S
C2199      H2201   1.082       .  S
N2202      N2203   1.325       .  A
N2202      C2206   1.345       .  A
N2203      C2204   1.351       .  A
C2204      C2205   1.386       .  A
C2204      H2207   1.082       .  S
C2205      C2206   1.379       .  A
C2205      C2318   1.447       .  S
C2206      H2208   1.082       .  S
N2209      N2210   1.324       .  A
N2209      C2213   1.351       .  A
N2209     Cu2217   2.099       .  S
N2210      C2211   1.345       .  A
N2210     Cu2216   2.077       .  S
C2211      C2212   1.379       .  A
C2211      H2214   1.082       .  S
C2212      C2213   1.386       .  A
C2212      C2307   1.446       .  S
C2213      H2215   1.082       .  S
Cu2216     N2219   2.077       .  S
Cu2217     N2227   2.099       .  S
Cu2218     N2220   2.080       .  S
Cu2218     N2226   2.081       .  S
N2219      N2220   1.322       .  A
N2219      C2223   1.347       .  A
N2220      C2221   1.347       .  A
C2221      C2222   1.382       .  A
C2221      H2224   1.082       .  S
C2222      C2223   1.381       .  A
C2222      C2309   1.443       .  S
C2223      H2225   1.082       .  S
N2226      N2227   1.325       .  A
N2226      C2230   1.345       .  A
N2227      C2228   1.351       .  A
C2228      C2229   1.385       .  A
C2228      H2231   1.082       .  S
C2229      C2230   1.379       .  A
C2229      C2431   1.446       .  S
C2230      H2232   1.082       .  S
N2233      N2234   1.324       .  A
N2233      C2237   1.352       .  A
N2233     Cu2241   2.101       .  S
N2234      C2235   1.345       .  A
N2234     Cu2240   2.076       .  S
C2235      C2236   1.379       .  A
C2235      H2238   1.082       .  S
C2236      C2237   1.387       .  A
C2236      C2312   1.447       .  S
C2237      H2239   1.082       .  S
Cu2240     N2243   2.076       .  S
Cu2241     N2251   2.101       .  S
Cu2242     N2244   2.080       .  S
Cu2242     N2250   2.081       .  S
N2243      N2244   1.322       .  A
N2243      C2247   1.347       .  A
N2244      C2245   1.347       .  A
C2245      C2246   1.382       .  A
C2245      H2248   1.082       .  S
C2246      C2247   1.381       .  A
C2246      C2310   1.443       .  S
C2247      H2249   1.082       .  S
N2250      N2251   1.325       .  A
N2250      C2254   1.346       .  A
N2251      C2252   1.351       .  A
C2252      C2253   1.386       .  A
C2252      H2255   1.082       .  S
C2253      C2254   1.379       .  A
C2253      C2374   1.447       .  S
C2254      H2256   1.082       .  S
N2257      N2258   1.325       .  A
N2257      C2261   1.352       .  A
N2257     Cu2265   2.104   1_455  S
N2258      C2259   1.345       .  A
N2258     Cu2264   2.077   1_455  S
C2259      C2260   1.378       .  A
C2259      H2262   1.082       .  S
C2260      C2261   1.387       .  A
C2260      C2315   1.447       .  S
C2261      H2263   1.082       .  S
Cu2264     N2267   2.077       .  S
Cu2265     N2275   2.104       .  S
Cu2266     N2268   2.079       .  S
Cu2266     N2274   2.079       .  S
N2267      N2268   1.322       .  A
N2267      C2271   1.347       .  A
N2268      C2269   1.347       .  A
C2269      C2270   1.382       .  A
C2269      H2272   1.082       .  S
C2270      C2271   1.382       .  A
C2270      C2305   1.443       .  S
C2271      H2273   1.082       .  S
N2274      N2275   1.325       .  A
N2274      C2278   1.345       .  A
N2275      C2276   1.352       .  A
C2276      C2277   1.387       .  A
C2276      H2279   1.082       .  S
C2277      C2278   1.379       .  A
C2277      C2497   1.447       .  S
C2278      H2280   1.082       .  S
N2281      N2282   1.325       .  A
N2281      C2285   1.352       .  A
N2281     Cu2289   2.103       .  S
N2282      C2283   1.345       .  A
N2282     Cu2288   2.078       .  S
C2283      C2284   1.378       .  A
C2283      H2286   1.082       .  S
C2284      C2285   1.387       .  A
C2284      C2470   1.447       .  S
C2285      H2287   1.082       .  S
Cu2288     N2291   2.078       .  S
Cu2289     N2299   2.103       .  S
Cu2290     N2292   2.077       .  S
Cu2290     N2298   2.077       .  S
N2291      N2292   1.322       .  A
N2291      C2295   1.347       .  A
N2292      C2293   1.347       .  A
C2293      C2294   1.382       .  A
C2293      H2296   1.082       .  S
C2294      C2295   1.382       .  A
C2294      C2306   1.443       .  S
C2295      H2297   1.082       .  S
N2298      N2299   1.325       .  A
N2298      C2302   1.345       .  A
N2299      C2300   1.352       .  A
C2300      C2301   1.386       .  A
C2300      H2303   1.082       .  S
C2301      C2302   1.378       .  A
C2301      C2308   1.446       .  S
C2302      H2304   1.082       .  S
C2305      C2306   1.210       .  T
C2307      C2308   1.211       .  T
C2309      C2310   1.209       .  T
C2311      C2312   1.212       .  T
C2313      C2314   1.209       .  T
C2315      C2316   1.212       .  T
C2317      C2318   1.212       .  T
C2319      C2320   1.209       .  T
C2321      C2322   1.210       .  T
C2323      C2324   1.211       .  T
C2325      C2326   1.212       .  T
C2327      C2328   1.209       .  T
C2329      C2330   1.212       .  T
C2331      C2332   1.209       .  T
C2333      C2334   1.212       .  T
C2335      C2336   1.209       .  T
C2337      C2338   1.212       .  T
C2339      C2340   1.209       .  T
C2341      C2342   1.212       .  T
C2343      C2344   1.209       .  T
C2345      C2346   1.210       .  T
C2347      C2348   1.212       .  T
C2349      C2350   1.209       .  T
C2351      C2352   1.212       .  T
C2353      C2354   1.212       .  T
C2355      C2356   1.212       .  T
C2357      C2358   1.209       .  T
C2359      C2360   1.212       .  T
C2361      C2362   1.212       .  T
C2363      C2364   1.210       .  T
C2365      C2366   1.212       .  T
C2367      C2368   1.209       .  T
C2369      C2370   1.212       .  T
C2371      C2372   1.210       .  T
C2373      C2374   1.212       .  T
C2375      C2376   1.212       .  T
C2377      C2378   1.209       .  T
C2379      C2380   1.212       .  T
C2381      C2382   1.212       .  T
C2383      C2384   1.209       .  T
C2385      C2386   1.212       .  T
C2387      C2388   1.212       .  T
C2389      C2390   1.209       .  T
C2391      C2392   1.212       .  T
C2393      C2394   1.211       .  T
C2395      C2396   1.209       .  T
C2397      C2398   1.213       .  T
C2399      C2400   1.211       .  T
C2401      C2402   1.209       .  T
C2403      C2404   1.211       .  T
C2405      C2406   1.210       .  T
C2407      C2408   1.211       .  T
C2409      C2410   1.212       .  T
C2411      C2412   1.212       .  T
C2413      C2414   1.210       .  T
C2415      C2416   1.212       .  T
C2417      C2418   1.209       .  T
C2419      C2420   1.212       .  T
C2421      C2422   1.212       .  T
C2423      C2424   1.210       .  T
C2425      C2426   1.212       .  T
C2427      C2428   1.212       .  T
C2429      C2430   1.209       .  T
C2431      C2432   1.211       .  T
C2433      C2434   1.212       .  T
C2435      C2436   1.212       .  T
C2437      C2438   1.212       .  T
C2439      C2440   1.209       .  T
C2441      C2442   1.212       .  T
C2443      C2444   1.211       .  T
C2445      C2446   1.209       .  T
C2447      C2448   1.210       .  T
C2449      C2450   1.213       .  T
C2451      C2452   1.213       .  T
C2453      C2454   1.213       .  T
C2455      C2456   1.213       .  T
C2457      C2458   1.209       .  T
C2459      C2460   1.212       .  T
C2461      C2462   1.212       .  T
C2463      C2464   1.209       .  T
C2465      C2466   1.212       .  T
C2467      C2468   1.209       .  T
C2469      C2470   1.212       .  T
C2471      C2472   1.209       .  T
C2473      C2474   1.212       .  T
C2475      C2476   1.212       .  T
C2477      C2478   1.212       .  T
C2479      C2480   1.210       .  T
C2481      C2482   1.212       .  T
C2483      C2484   1.212       .  T
C2485      C2486   1.211       .  T
C2487      C2488   1.211       .  T
C2489      C2490   1.209       .  T
C2491      C2492   1.212       .  T
C2493      C2494   1.211       .  T
C2495      C2496   1.209       .  T
C2497      C2498   1.212       .  T
C2499      C2500   1.211       .  T
C2501      C2502   1.209       .  T
C2503      C2504   1.212       .  T
C2505      C2506   1.212       .  T
C2507      C2508   1.213       .  T
C2509      C2510   1.210       .  T
C2511      C2512   1.212       .  T
C2513      C2514   1.212       .  T
C2515      C2516   1.210       .  T
C2517      C2518   1.212       .  T
C2519      C2520   1.212       .  T
C2521      C2522   1.212       .  T
C2523      C2524   1.213       .  T
C2525      C2526   1.209       .  T
C2527      C2528   1.211       .  T
C2529      C2530   1.211       .  T
C2531      C2532   1.211       .  T
C2533      C2534   1.210       .  T
C2535      C2536   1.212       .  T
C2537      C2538   1.209       .  T
C2539      C2540   1.212       .  T
C2541      C2542   1.212       .  T
C2543      C2544   1.212       .  T
C2545      C2546   1.212       .  T
C2547      C2548   1.210       .  T
C2549      C2550   1.212       .  T
C2551      C2552   1.212       .  T
C2553      C2554   1.210       .  T
C2555      C2556   1.212       .  T
C2557      C2558   1.212       .  T
C2559      C2560   1.212       .  T
C2561      C2562   1.212       .  T
C2563      C2564   1.210       .  T
C2565      C2566   1.211       .  T
C2567      C2568   1.212       .  T
C2569      C2570   1.211       .  T
C2571      C2572   1.209       .  T
C2573      C2574   1.212       .  T
C2575      C2576   1.212       .  T
C2577      C2578   1.212       .  T
C2579      C2580   1.212       .  T
C2581      C2582   1.209       .  T
C2583      C2584   1.212       .  T
C2585      C2586   1.212       .  T
C2587      C2588   1.213       .  T
C2589      C2590   1.212       .  T
C2591      C2592   1.209       .  T
