geometry optimzed in LAMMPS
_audit_creation_date              2020-11-30 
_audit_creation_method            'lammps2cif' 
_symmetry_space_group_name_H-M    'P1' 
_symmetry_Int_Tables_number       1 
_symmetry_cell_setting            triclinic 
loop_ 
_symmetry_equiv_pos_as_xyz 
  x,y,z 
_cell_length_a                    57.89157511174822 
_cell_length_b                    57.46105432562297 
_cell_length_c                    58.416692719554064 
_cell_angle_alpha                 90.01111518690948 
_cell_angle_beta                  89.94301396511239 
_cell_angle_gamma                 90.06187490626976 
loop_ 
_atom_site_label 
_atom_site_type_symbol 
_atom_site_fract_x 
_atom_site_fract_y 
_atom_site_fract_z 
_atom_site_charge 
O1          O  0.02329065  0.47292635  0.28517507    -0.80670
O2          O  0.97694185  0.52580058  0.28546373    -0.80690
O3          O  0.05067020  0.52299252  0.25972244    -0.80700
O4          O  0.94957154  0.47672270  0.25930272    -0.80640
O5          O  0.02403426  0.52610868  0.28578762    -0.80770
O6          O  0.97606536  0.47273391  0.28529307    -0.80690
O7          O  0.95024278  0.52382372  0.25956586    -0.80670
O8          O  0.05020061  0.47582402  0.25950603    -0.80710
C9          C  0.04416436  0.47011047  0.27981380     1.09020
C10         C  0.95625979  0.52930309  0.27990654     1.08900
C11         C  0.04486418  0.52865354  0.28007946     1.09040
C12         C  0.95506662  0.47090951  0.27975180     1.08920
O13         O  0.97643148  0.44975329  0.23955108    -0.80670
O14         O  0.02372045  0.55030692  0.24049903    -0.80750
O15         O  0.02603465  0.47655790  0.21411163    -0.80680
O16         O  0.97398065  0.52442673  0.21418469    -0.80660
O17         O  0.97731169  0.55059352  0.24077834    -0.80720
O18         O  0.02307357  0.44931094  0.23948338    -0.80680
O19         O  0.97389616  0.47689276  0.21388582    -0.80640
O20         O  0.02669577  0.52351622  0.21447908    -0.80710
Co21       Co  0.99977137  0.46467341  0.26192937     1.51530
Co22       Co  0.00049685  0.53474638  0.26264642     1.51690
Co23       Co  0.03500959  0.49970607  0.23750529     1.51570
Co24       Co  0.96537801  0.50036733  0.23725920     1.51470
O25         O  0.00015611  0.49989044  0.24986619    -1.42600
C26         C  0.97176951  0.45572755  0.21899858     1.08950
C27         C  0.02878856  0.54459364  0.21998214     1.09040
C28         C  0.02802895  0.45537928  0.21898574     1.08970
C29         C  0.97176059  0.54537003  0.22026011     1.08950
O30         O  0.52620151  0.02492755  0.28491153    -0.80670
O31         O  0.47345229  0.97712181  0.28463852    -0.80690
O32         O  0.47613227  0.05152599  0.25938161    -0.80700
O33         O  0.52313736  0.95050181  0.25783123    -0.80640
O34         O  0.47384602  0.02449283  0.28519778    -0.80770
O35         O  0.52685300  0.97708918  0.28400074    -0.80690
O36         O  0.47588444  0.95022954  0.25886190    -0.80670
O37         O  0.52251937  0.05195612  0.25905227    -0.80710
C38         C  0.52802537  0.04610514  0.27940234     1.09020
C39         C  0.47041725  0.95612312  0.27932420     1.08900
C40         C  0.47138941  0.04560140  0.27996049     1.09040
C41         C  0.52943707  0.95614854  0.27804957     1.08920
O42         O  0.54956027  0.97831414  0.23813663    -0.80670
O43         O  0.44961500  0.02505273  0.24014409    -0.80750
O44         O  0.52356199  0.02956917  0.21346167    -0.80680
O45         O  0.47543731  0.97442929  0.21340004    -0.80660
O46         O  0.44884983  0.97800550  0.23940368    -0.80720
O47         O  0.54980531  0.02568512  0.23970742    -0.80680
O48         O  0.52238617  0.97475337  0.21264548    -0.80640
O49         O  0.47574060  0.02819909  0.21352661    -0.80710
Co50       Co  0.53457017  0.00145025  0.26113137     1.51530
Co51       Co  0.46491048  0.00112658  0.26176392     1.51690
Co52       Co  0.49944442  0.03663345  0.23677215     1.51570
Co53       Co  0.49921614  0.96602853  0.23632551     1.51470
O54         O  0.49961075  0.00126626  0.24886393    -1.42600
C55         C  0.54336733  0.97254423  0.21787010     1.08950
C56         C  0.45499769  0.03071843  0.21966505     1.09040
C57         C  0.54434954  0.03231229  0.21957076     1.08970
C58         C  0.45448918  0.97249520  0.21892166     1.08950
O59         O  0.21533378  0.02643280  0.47722247    -0.80670
O60         O  0.21308837  0.97298113  0.52401773    -0.80690
O61         O  0.24262265  0.97643148  0.45188660    -0.80700
O62         O  0.23872201  0.02322086  0.55136465    -0.80640
O63         O  0.21489016  0.97287889  0.47677499    -0.80770
O64         O  0.21360425  0.02683958  0.52398060    -0.80690
O65         O  0.23879265  0.97605294  0.55105885    -0.80670
O66         O  0.24257020  0.02339417  0.45191281    -0.80710
C67         C  0.22162813  0.02855112  0.45669351     1.09020
C68         C  0.21828012  0.97069411  0.54487086     1.08900
C69         C  0.22179576  0.97068715  0.45637835     1.09040
C70         C  0.21852022  0.02936452  0.54485217     1.08920
O71         O  0.25946008  0.05045069  0.52514189    -0.80670
O72         O  0.26077178  0.94899462  0.47907601    -0.80750
O73         O  0.28729782  0.02324335  0.47760576    -0.80680
O74         O  0.28550583  0.97620638  0.52861668    -0.80660
O75         O  0.25917595  0.94949703  0.52513889    -0.80720
O76         O  0.26127285  0.05022780  0.47903948    -0.80680
O77         O  0.28527071  0.02336372  0.52899433    -0.80640
O78         O  0.28712962  0.97589472  0.47691407    -0.80710
Co79       Co  0.23786773  0.03497873  0.50134384     1.51530
Co80       Co  0.23743516  0.96463764  0.50127904     1.51690
Co81       Co  0.26422262  0.99979423  0.46797074     1.51570
Co82       Co  0.26163218  0.99971018  0.53662220     1.51470
O83         O  0.25010960  0.99975510  0.50182000    -1.42600
C84         C  0.27988260  0.04449336  0.53093953     1.08950
C85         C  0.28156585  0.95483096  0.47434839     1.09040
C86         C  0.28219928  0.04434551  0.47509528     1.08970
C87         C  0.27982363  0.95516089  0.53053173     1.08950
O88         O  0.02548186  0.28556700  0.52483096    -0.80670
O89         O  0.97866199  0.28701978  0.47285438    -0.80690
O90         O  0.05155859  0.25806011  0.47501467    -0.80700
O91         O  0.95120498  0.26040347  0.52284507    -0.80640
O92         O  0.02601628  0.28546924  0.47290157    -0.80770
O93         O  0.97839949  0.28631115  0.52613770    -0.80690
O94         O  0.95095742  0.26169766  0.47656517    -0.80670
O95         O  0.05177186  0.25873679  0.52103135    -0.80710
C96         C  0.04629729  0.27953244  0.52661632     1.09020
C97         C  0.95753161  0.28206442  0.47058997     1.08900
C98         C  0.04678292  0.27930808  0.47058092     1.09040
C99         C  0.95750943  0.28076899  0.52883147     1.08920
O100        O  0.97856681  0.23999038  0.54890286    -0.80670
O101        O  0.02397978  0.23877489  0.44922039    -0.80750
O102        O  0.02705635  0.21300931  0.52226932    -0.80680
O103        O  0.97314239  0.21502437  0.47528758    -0.80660
O104        O  0.97706219  0.24161745  0.44923695    -0.80720
O105        O  0.02513748  0.23962430  0.54852653    -0.80680
O106        O  0.97365510  0.21412085  0.52204187    -0.80640
O107        O  0.02615099  0.21221031  0.47558711    -0.80710
Co108      Co  0.00185429  0.26234424  0.53359720     1.51530
Co109      Co  0.00151121  0.26264912  0.46447711     1.51690
Co110      Co  0.03561374  0.23610747  0.49848535     1.51570
Co111      Co  0.96579562  0.23826100  0.49912966     1.51470
O112        O  0.00110104  0.24983062  0.49895976    -1.42600
C113        C  0.97197739  0.21969616  0.54285288     1.08950
C114        C  0.02862035  0.21770989  0.45487453     1.09040
C115        C  0.03023111  0.21880395  0.54282322     1.08970
C116        C  0.97044610  0.22122024  0.45477821     1.08950
O117        O  0.47558140  0.28614993  0.02277462    -0.80670
O118        O  0.52780224  0.28712089  0.97766533    -0.80690
O119        O  0.52464410  0.25683483  0.04913193    -0.80700
O120        O  0.47760563  0.26132339  0.94916061    -0.80640
O121        O  0.52792469  0.28497475  0.02461838    -0.80770
O122        O  0.47492359  0.28722265  0.97590674    -0.80690
O123        O  0.52426812  0.26201927  0.95003618    -0.80670
O124        O  0.47843430  0.25901491  0.04874792    -0.80710
C125        C  0.47368053  0.28007379  0.04342777     1.09020
C126        C  0.52964344  0.28253386  0.95663296     1.08900
C127        C  0.53015609  0.27789397  0.04491895     1.09040
C128        C  0.47211006  0.28199731  0.95513884     1.08920
O129        O  0.45098664  0.24095239  0.97579844    -0.80670
O130        O  0.55113470  0.23819648  0.02183093    -0.80750
O131        O  0.47655016  0.21337839  0.02354037    -0.80680
O132        O  0.52476838  0.21512030  0.97175071    -0.80660
O133        O  0.55146768  0.24134152  0.97568938    -0.80720
O134        O  0.45092124  0.24074993  0.02187641    -0.80680
O135        O  0.47799157  0.21494126  0.97223621    -0.80640
O136        O  0.52391318  0.21223307  0.02362157    -0.80710
Co137      Co  0.46655037  0.26325733  0.99908738     1.51530
Co138      Co  0.53613891  0.26247508  0.99993678     1.51690
Co139      Co  0.50082085  0.23597405  0.03285713     1.51570
Co140      Co  0.50117293  0.23874919  0.96418925     1.51470
O141        O  0.50120405  0.25019569  0.99900350    -1.42600
C142        C  0.45712425  0.22045458  0.96983639     1.08950
C143        C  0.54496178  0.21723719  0.02627573     1.09040
C144        C  0.45576881  0.21948361  0.02587144     1.08970
C145        C  0.54562689  0.22088171  0.96946370     1.08950
O146        O  0.28794876  0.52421075  0.02368852    -0.80670
O147        O  0.28585199  0.47150081  0.97688174    -0.80690
O148        O  0.26090997  0.47411660  0.05085542    -0.80700
O149        O  0.25922603  0.52293324  0.95122214    -0.80640
O150        O  0.28633375  0.47113111  0.02377446    -0.80770
O151        O  0.28611049  0.52477784  0.97684730    -0.80690
O152        O  0.25911157  0.47578534  0.95102976    -0.80670
O153        O  0.26211300  0.52121365  0.05060969    -0.80710
C154        C  0.28273672  0.52613988  0.04455069     1.09020
C155        C  0.27980800  0.47001393  0.95618631     1.08900
C156        C  0.28126629  0.46828573  0.04456594     1.09040
C157        C  0.28004078  0.52830176  0.95644561     1.08920
O158        O  0.24059914  0.54917939  0.97884307    -0.80670
O159        O  0.23986733  0.44797051  0.02390975    -0.80750
O160        O  0.21587539  0.52303606  0.02900287    -0.80680
O161        O  0.21372833  0.47546700  0.97570715    -0.80660
O162        O  0.23958359  0.44830988  0.97780607    -0.80720
O163        O  0.24255339  0.54943258  0.02518429    -0.80680
O164        O  0.21383225  0.52277203  0.97659745    -0.80640
O165        O  0.21441465  0.47546132  0.02850213    -0.80710
Co166      Co  0.26372166  0.53344068  0.00115981     1.51530
Co167      Co  0.26246967  0.46326126  0.00065374     1.51690
Co168      Co  0.23879145  0.49842806  0.03621444     1.51570
Co169      Co  0.23708569  0.49918424  0.96704580     1.51470
O170        O  0.25047750  0.49856259  0.00127971    -1.42600
C171        C  0.21973352  0.54367107  0.97399658     1.08950
C172        C  0.21953112  0.45421675  0.02995586     1.09040
C173        C  0.22218327  0.54388593  0.03167545     1.08970
C174        C  0.21888525  0.45430832  0.97325354     1.08950
O175        O  0.52478768  0.04944552  0.74098956    -0.80670
O176        O  0.47771995  0.94873729  0.73992075    -0.80690
O177        O  0.52725524  0.97537272  0.71490079    -0.80700
O178        O  0.47563699  0.02295824  0.71450171    -0.80640
O179        O  0.52428192  0.94875639  0.74100535    -0.80770
O180        O  0.47805956  0.04969272  0.74057797    -0.80690
O181        O  0.47511260  0.97565183  0.71405632    -0.80670
O182        O  0.52793511  0.02255896  0.71512473    -0.80710
C183        C  0.53014401  0.04364890  0.72051489     1.09020
C184        C  0.47330680  0.95443695  0.71924834     1.08900
C185        C  0.52973304  0.95442335  0.72053226     1.09040
C186        C  0.47337447  0.04402355  0.71992726     1.08920
O187        O  0.47702374  0.02597397  0.78607325    -0.80670
O188        O  0.52314395  0.97253434  0.78673678    -0.80750
O189        O  0.55143241  0.02203787  0.76062517    -0.80680
O190        O  0.45008774  0.97565001  0.75909635    -0.80660
O191        O  0.47619323  0.97202587  0.78553877    -0.80720
O192        O  0.52461005  0.02610335  0.78643907    -0.80680
O193        O  0.45096626  0.02277309  0.75944770    -0.80640
O194        O  0.55036227  0.97510647  0.76113655    -0.80710
Co195      Co  0.50107288  0.03426077  0.76303212     1.51530
Co196      Co  0.50036798  0.96400798  0.76282250     1.51690
Co197      Co  0.53579862  0.99877526  0.73842903     1.51570
Co198      Co  0.46636441  0.99923714  0.73738714     1.51470
O199        O  0.50087447  0.99911882  0.75057176    -1.42600
C200        C  0.45618880  0.02804741  0.78008664     1.08950
C201        C  0.54408402  0.97006018  0.78156429     1.09040
C202        C  0.54563809  0.02793596  0.78092222     1.08970
C203        C  0.45541202  0.96973594  0.77954099     1.08950
O204        O  0.73922846  0.52255643  0.04976375    -0.80670
O205        O  0.74099995  0.47683648  0.94978337    -0.80690
O206        O  0.71331429  0.52695307  0.97625634    -0.80700
O207        O  0.71417700  0.47146432  0.02266813    -0.80640
O208        O  0.74031504  0.52401884  0.95038099    -0.80770
O209        O  0.74038438  0.47569917  0.04903208    -0.80690
O210        O  0.71422152  0.47228620  0.97551007    -0.80670
O211        O  0.71274160  0.52607568  0.02365926    -0.80710
C212        C  0.71845392  0.52775207  0.04448003     1.09020
C213        C  0.72044254  0.47049608  0.95487147     1.08900
C214        C  0.71952854  0.52919416  0.95564176     1.09040
C215        C  0.71995002  0.46941281  0.04340802     1.08920
O216        O  0.78599655  0.47730924  0.02499274    -0.80670
O217        O  0.78536972  0.52453059  0.97477012    -0.80750
O218        O  0.75815165  0.55067460  0.02408570    -0.80680
O219        O  0.76088720  0.44979203  0.97587514    -0.80660
O220        O  0.78614521  0.47752889  0.97460388    -0.80720
O221        O  0.78519069  0.52474178  0.02641227    -0.80680
O222        O  0.76072494  0.44943739  0.02194266    -0.80640
O223        O  0.75900647  0.55121757  0.97785147    -0.80710
Co224      Co  0.76216762  0.50008303  0.03413033     1.51530
Co225      Co  0.76258684  0.50067322  0.96572250     1.51690
Co226      Co  0.73632802  0.53514851  0.00038653     1.51570
Co227      Co  0.73787070  0.46438066  0.99906821     1.51470
O228        O  0.74933974  0.50010520  0.99983273    -1.42600
C229        C  0.78106895  0.45610432  0.02729079     1.08950
C230        C  0.77960576  0.54548663  0.97236767     1.09040
C231        C  0.77900193  0.54559039  0.02925234     1.08970
C232        C  0.78138602  0.45649521  0.97110511     1.08950
O233        O  0.04860850  0.74012111  0.52337151    -0.80670
O234        O  0.94883616  0.73860182  0.47786209    -0.80690
O235        O  0.97465855  0.71306701  0.52606320    -0.80700
O236        O  0.02403571  0.71499712  0.47401860    -0.80640
O237        O  0.94836604  0.73977802  0.52414077    -0.80770
O238        O  0.04933918  0.74267112  0.47734728    -0.80690
O239        O  0.97665697  0.71339914  0.47358842    -0.80670
O240        O  0.02198214  0.71341303  0.52581930    -0.80710
C241        C  0.04294320  0.71906540  0.52785289     1.09020
C242        C  0.95554466  0.71840252  0.47142496     1.08900
C243        C  0.95377674  0.71874078  0.52859319     1.09040
C244        C  0.04465178  0.72167185  0.47178139     1.08920
O245        O  0.02451283  0.78817943  0.47883510    -0.80670
O246        O  0.97174378  0.78589948  0.52398294    -0.80750
O247        O  0.02177845  0.75858934  0.55075928    -0.80680
O248        O  0.97502955  0.75911403  0.45064669    -0.80660
O249        O  0.97136310  0.78532856  0.47704134    -0.80720
O250        O  0.02427384  0.78630839  0.52575567    -0.80680
O251        O  0.02198360  0.76231810  0.45167630    -0.80640
O252        O  0.97535937  0.75928395  0.55023285    -0.80710
Co253      Co  0.03317018  0.76373384  0.50134418     1.51530
Co254      Co  0.96354878  0.76198383  0.50074315     1.51690
Co255      Co  0.99843140  0.73663084  0.53478563     1.51570
Co256      Co  0.99944916  0.73797315  0.46591621     1.51470
O257        O  0.99861894  0.75010812  0.50063994    -1.42600
C258        C  0.02734121  0.78299913  0.45805772     1.08950
C259        C  0.97038495  0.78028113  0.54482547     1.09040
C260        C  0.02645597  0.77983647  0.54627473     1.08970
C261        C  0.96816520  0.77932882  0.45655561     1.08950
O262        O  0.02308608  0.52681944  0.71316369    -0.80670
O263        O  0.97658248  0.47316066  0.71466164    -0.80690
O264        O  0.05028981  0.47692885  0.73979709    -0.80700
O265        O  0.94933563  0.52258234  0.73933892    -0.80640
O266        O  0.02370414  0.47335113  0.71378710    -0.80770
O267        O  0.97609371  0.52604884  0.71340749    -0.80690
O268        O  0.95035829  0.47577006  0.74099814    -0.80670
O269        O  0.05014871  0.52392326  0.73874056    -0.80710
C270        C  0.04416437  0.52877482  0.71821578     1.09020
C271        C  0.95581543  0.47049843  0.72043869     1.08900
C272        C  0.04459501  0.47126725  0.71942822     1.09040
C273        C  0.95502474  0.52749165  0.71872118     1.08920
O274        O  0.97579479  0.55086382  0.75815784    -0.80670
O275        O  0.02395093  0.45040057  0.75991589    -0.80750
O276        O  0.02646862  0.52471225  0.78432446    -0.80680
O277        O  0.97481268  0.47752654  0.78596632    -0.80660
O278        O  0.97772979  0.45004767  0.76067636    -0.80720
O279        O  0.02278425  0.55145643  0.75827711    -0.80680
O280        O  0.97332865  0.52487981  0.78491505    -0.80640
O281        O  0.02694674  0.47762977  0.78556166    -0.80710
Co282      Co  0.99952392  0.53534451  0.73639016     1.51530
Co283      Co  0.00042231  0.46522628  0.73762378     1.51690
Co284      Co  0.03501495  0.50081578  0.76160835     1.51570
Co285      Co  0.96541335  0.50025178  0.76227822     1.51470
O286        O  0.00011814  0.50047966  0.74944790    -1.42600
C287        C  0.97053606  0.54571511  0.77879878     1.08950
C288        C  0.02913958  0.45652033  0.78028911     1.09040
C289        C  0.02853916  0.54571485  0.77863437     1.08970
C290        C  0.97323783  0.45621632  0.78124965     1.08950
O291        O  0.52648377  0.71302132  0.02285529    -0.80670
O292        O  0.47413697  0.71204288  0.97711186    -0.80690
O293        O  0.47745544  0.73993925  0.04971850    -0.80700
O294        O  0.52311974  0.73895099  0.94938200    -0.80640
O295        O  0.47449986  0.71289609  0.02399257    -0.80770
O296        O  0.52630159  0.71271305  0.97597437    -0.80690
O297        O  0.47654132  0.73779023  0.95001477    -0.80670
O298        O  0.52398608  0.73975292  0.04898199    -0.80710
C299        C  0.52900363  0.71877068  0.04352985     1.09020
C300        C  0.47151424  0.71699574  0.95623679     1.08900
C301        C  0.47299079  0.71872618  0.04473765     1.09040
C302        C  0.52863934  0.71826809  0.95523267     1.08920
O303        O  0.54995130  0.75915612  0.97612204    -0.80670
O304        O  0.45011224  0.75915019  0.02289015    -0.80750
O305        O  0.52431422  0.78597564  0.02502507    -0.80680
O306        O  0.47581004  0.78471122  0.97309402    -0.80660
O307        O  0.44989005  0.75762417  0.97670842    -0.80720
O308        O  0.55029660  0.75890822  0.02193748    -0.80680
O309        O  0.52314261  0.78536366  0.97250688    -0.80640
O310        O  0.47669089  0.78588657  0.02590257    -0.80710
Co311      Co  0.53478208  0.73640896  0.99920980     1.51530
Co312      Co  0.46557057  0.73598151  0.00018235     1.51690
Co313      Co  0.50057323  0.76236657  0.03389264     1.51570
Co314      Co  0.49966073  0.76126949  0.96470616     1.51470
O315        O  0.50012445  0.74916728  0.99948475    -1.42600
C316        C  0.54430816  0.78012578  0.97136558     1.08950
C317        C  0.45575513  0.78008031  0.02802190     1.09040
C318        C  0.54519184  0.77993517  0.02682475     1.08970
C319        C  0.45498724  0.77857261  0.97139643     1.08950
C320        C  0.83656195  0.28818565  0.62348257     0.41920
N321        N  0.84201502  0.32252553  0.63687478     0.00810
C322        C  0.75222355  0.39918090  0.65386768    -0.07060
H323        H  0.74503288  0.35511059  0.58091014     0.06310
C324        C  0.83300732  0.38538773  0.55817694    -0.07410
Co325      Co  0.79756233  0.34388671  0.65005613     0.74180
N326        N  0.77122420  0.35322221  0.60738148    -0.26590
Co327      Co  0.78651760  0.38617728  0.61238827     0.74070
C328        C  0.81206474  0.37988618  0.54575215     0.42030
N329        N  0.87077565  0.36710620  0.59623407     0.00430
N330        N  0.80369488  0.38508618  0.58103200     0.00540
N331        N  0.76185696  0.37015781  0.67800588    -0.47440
H332        H  0.79748162  0.29093762  0.63015277     0.06290
N333        N  0.77632904  0.33682235  0.62228366     0.00820
N334        N  0.80262581  0.41707961  0.61948506     0.00560
C335        C  0.80825641  0.44966837  0.63562581     0.42170
N336        N  0.87422360  0.35142862  0.61224157    -0.26050
C337        C  0.81362158  0.35636629  0.69869003    -0.06970
N338        N  0.85250440  0.30482314  0.62726102    -0.47150
N339        N  0.79198985  0.43403811  0.63025605    -0.47380
C340        C  0.83504969  0.36519312  0.70831367     0.41940
N341        N  0.77512711  0.37016483  0.65955514     0.00810
N342        N  0.87318973  0.38596966  0.64928069    -0.26070
N343        N  0.81980358  0.31881166  0.63945689    -0.26560
N344        N  0.87009024  0.40289454  0.63452868     0.00450
H345        H  0.89273145  0.38323458  0.68070804     0.06340
H346        H  0.84705254  0.44921328  0.62720685     0.06370
N347        N  0.76990721  0.38670597  0.64488646    -0.26610
N348        N  0.82624768  0.38840537  0.57952023    -0.26220
N349        N  0.84063416  0.35719028  0.67340481     0.00810
C350        C  0.74964764  0.32120390  0.60179699     0.42210
C351        C  0.88899109  0.33520784  0.60475328    -0.07470
N352        N  0.82510232  0.42083141  0.61711992    -0.26220
H353        H  0.85079415  0.38641427  0.55326759     0.06360
N354        N  0.76380499  0.31777277  0.61972094    -0.47440
H355        H  0.89488765  0.32034045  0.61447455     0.06350
C356        C  0.89229189  0.41769380  0.66078645     0.46850
C357        C  0.81468776  0.29785585  0.63129380    -0.06970
Co358      Co  0.85765625  0.35376654  0.64345466     0.73820
N359        N  0.88266534  0.36193491  0.57713394    -0.47160
C360        C  0.74704015  0.38813141  0.67613846     0.42310
N361        N  0.85070498  0.36558667  0.69157180    -0.47150
Co362      Co  0.84821469  0.39562175  0.60599903     0.73890
C363        C  0.83007784  0.44147315  0.62628310    -0.07480
C364        C  0.75410803  0.34513644  0.59375795    -0.07040
N365        N  0.81874059  0.35218950  0.67678224    -0.26570
N366        N  0.79446937  0.37979634  0.56099369    -0.47330
H367        H  0.74303580  0.41300166  0.64523445     0.06320
C368        C  0.88698163  0.39348170  0.66627475    -0.07450
Cl369      Cl  0.82244811  0.36989473  0.62778357    -0.50460
C370        C  0.89451352  0.34166780  0.58133625     0.42070
H371        H  0.79689277  0.35423957  0.70667088     0.06290
N372        N  0.88139156  0.42226921  0.64058164    -0.47170
C373        C  0.57605742  0.34618294  0.89192872     0.41920
N374        N  0.60651029  0.35657215  0.87309073     0.00810
C375        C  0.62954095  0.43378074  0.78664360    -0.07060
H376        H  0.56329082  0.36692871  0.77005527     0.06310
C377        C  0.62249585  0.31336364  0.76810787    -0.07410
Co378      Co  0.60261892  0.39807842  0.84271513     0.74180
N379        N  0.58271728  0.38232689  0.79754285    -0.26590
Co380      Co  0.61510280  0.38348311  0.78355923     0.74070
C381        C  0.60451306  0.31833987  0.75143038     0.42030
N382        N  0.63920544  0.31934849  0.82526094     0.00430
N383        N  0.61161470  0.34925440  0.77102751     0.00540
N384        N  0.62208432  0.44275146  0.82363420    -0.47440
H385        H  0.55541438  0.37716074  0.87679804     0.06290
N386        N  0.57779205  0.38733043  0.81916058     0.00820
N387        N  0.64903361  0.38349374  0.77038378     0.00560
C388        C  0.67927683  0.38645704  0.74878640     0.42170
N389        N  0.63471444  0.32534819  0.84651339    -0.26050
C390        C  0.63600240  0.42776792  0.87716800    -0.06970
N391        N  0.59837652  0.34105413  0.88787838    -0.47150
N392        N  0.65777529  0.39512350  0.75261387    -0.47380
C393        C  0.65659077  0.42160025  0.89119202     0.41940
N394        N  0.61522163  0.42149364  0.81872339     0.00810
N395        N  0.67158580  0.35959492  0.84524654    -0.26070
N396        N  0.59120784  0.37218928  0.86675842    -0.26560
N397        N  0.67631824  0.35359966  0.82399198     0.00450
H398        H  0.69218809  0.37430217  0.87214766     0.06340
H399        H  0.69637073  0.35508354  0.76634099     0.06370
N400        N  0.61954019  0.41591165  0.79712818    -0.26610
N401        N  0.62576675  0.33342470  0.77919148    -0.26220
N402        N  0.64394787  0.39144289  0.87248759     0.00810
C403        C  0.54713310  0.37273205  0.80531637     0.42210
C404        C  0.62631853  0.30711332  0.85754365    -0.07470
N405        N  0.66302457  0.36711639  0.77775663    -0.26220
H406        H  0.63289637  0.29786335  0.77005128     0.06360
N407        N  0.55630459  0.38192353  0.82444921    -0.47440
H408        H  0.62244204  0.30648645  0.87562676     0.06350
C409        C  0.70757609  0.36717560  0.83701103     0.42050
C410        C  0.57125153  0.36730482  0.87807171    -0.06970
Co411      Co  0.63966915  0.35776519  0.85963417     0.73820
N412        N  0.63503263  0.29714730  0.82139853    -0.47160
C413        C  0.63185273  0.45093519  0.80438841     0.42310
N414        N  0.66000905  0.39871670  0.88708914    -0.47150
Co415      Co  0.65155577  0.34276482  0.80176562     0.73890
C416        C  0.68245512  0.36757600  0.76524355    -0.07480
C417        C  0.56416065  0.37348099  0.78737870    -0.07040
N418        N  0.62952765  0.40789025  0.86620140    -0.26570
N419        N  0.59900658  0.34119616  0.75368820    -0.47330
H420        H  0.63542204  0.43423320  0.76907864     0.06320
C421        C  0.69033510  0.36855309  0.85465502    -0.07450
Cl422      Cl  0.62715414  0.37061031  0.82189003    -0.50460
C423        C  0.62740933  0.28815014  0.84136854     0.42070
H424        H  0.62759331  0.44446981  0.87545204     0.06290
N425        N  0.69800877  0.35747065  0.81842331    -0.47170
C426        C  0.62896292  0.16276401  0.70935260     0.41920
N427        N  0.63979859  0.15865472  0.67470811     0.00810
C428        C  0.65460623  0.24778604  0.59803564    -0.07060
H429        H  0.58359472  0.25606975  0.64692955     0.06310
C430        C  0.55775043  0.17135382  0.62299301    -0.07410
Co431      Co  0.65370063  0.20325195  0.65393729     0.74180
N432        N  0.61107162  0.23050492  0.64730931    -0.26590
Co433      Co  0.61358662  0.21524064  0.61475687     0.74070
C434        C  0.54865381  0.19328367  0.63123325     0.42030
N435        N  0.59615705  0.13057253  0.63347695     0.00430
N436        N  0.58249929  0.19906759  0.61913837     0.00540
N437        N  0.68107695  0.23833476  0.62492146    -0.47440
H438        H  0.63953496  0.20163196  0.70903663     0.06290
N439        N  0.62670782  0.22516379  0.66274984     0.00820
N440        N  0.61690330  0.19944400  0.58356591     0.00560
C441        C  0.62359909  0.19441475  0.54837598     0.42170
N442        N  0.61280008  0.12675942  0.64823697    -0.26050
C443        C  0.70107252  0.18627455  0.63878925    -0.06970
N444        N  0.63031315  0.14777705  0.69192876    -0.47150
N445        N  0.62250377  0.21066392  0.56473009    -0.47380
C446        C  0.71030384  0.16456015  0.63012910     0.41940
N447        N  0.66200432  0.22577729  0.62715053     0.00810
N448        N  0.64820681  0.12752187  0.61226194    -0.26070
N449        N  0.64411184  0.18061935  0.67917699    -0.26560
N450        N  0.63286112  0.13142551  0.59617621     0.00450
H451        H  0.67919022  0.10670968  0.61399345     0.06340
H452        H  0.61594711  0.15523772  0.55033807     0.06370
N453        N  0.64624388  0.23083923  0.61171562    -0.26610
N454        N  0.57904784  0.17647766  0.61609905    -0.26220
N455        N  0.67522720  0.15937212  0.63919246     0.00810
C456        C  0.60635914  0.25155970  0.67907785     0.42210
C457        C  0.60527075  0.11229864  0.66469086    -0.07470
N458        N  0.61364469  0.17688081  0.58023546    -0.26220
H459        H  0.54980997  0.15431902  0.62284020     0.06360
N460        N  0.62466180  0.23736656  0.68185353    -0.47440
H461        H  0.61532072  0.10609334  0.67903674     0.06350
C462        C  0.65825075  0.10835767  0.58074149     0.42050
C463        C  0.63815983  0.18488477  0.70081825    -0.06970
Co464      Co  0.64457274  0.14291675  0.64407437     0.73820
N465        N  0.57674588  0.11925508  0.63928717    -0.47160
C466        C  0.67789432  0.25261922  0.60684568     0.42310
N467        N  0.69321786  0.14891781  0.63043739    -0.47150
Co468      Co  0.60455947  0.15364196  0.60563929     0.73890
C469        C  0.61764205  0.17211112  0.55837544    -0.07480
C470        C  0.59735233  0.24729139  0.65597156    -0.07040
N471        N  0.67922544  0.18136946  0.64392682    -0.26570
N472        N  0.56443827  0.20983222  0.62769507    -0.47330
H473        H  0.64522031  0.25634783  0.58444015     0.06320
C474        C  0.66455660  0.11308708  0.60436918    -0.07450
Cl475      Cl  0.62903871  0.17878704  0.62948465    -0.50460
C476        C  0.58123581  0.10748702  0.65918117     0.42070
H477        H  0.70945872  0.20297621  0.64077569     0.06290
N478        N  0.63818490  0.12025437  0.57673788    -0.47170
C479        C  0.87308011  0.21257093  0.66597854     0.41920
N480        N  0.86220719  0.17753568  0.66022942     0.00810
C481        C  0.84565895  0.09859074  0.74687769    -0.07060
H482        H  0.91507032  0.14790027  0.75744899     0.06310
C483        C  0.94417177  0.12468982  0.67345029    -0.07410
Co484      Co  0.84674334  0.15533089  0.70320176     0.74180
N485        N  0.88874142  0.14879063  0.73113056    -0.26590
Co486      Co  0.88700984  0.11605694  0.71520776     0.74070
C487        C  0.95280303  0.13250850  0.69545172     0.42030
N488        N  0.90618781  0.13600795  0.63221582     0.00430
N489        N  0.91844787  0.12102564  0.69991420     0.00540
N490        N  0.81899980  0.12549562  0.73706200    -0.47440
H491        H  0.86247640  0.21103616  0.70384775     0.06290
N492        N  0.87284483  0.16425969  0.72600520     0.00820
N493        N  0.88425697  0.08479721  0.69899410     0.00560
C494        C  0.87727494  0.04927463  0.69356176     0.42170
N495        N  0.88953387  0.15097353  0.62840585    -0.26050
C496        C  0.80027537  0.13817691  0.68436959    -0.06970
N497        N  0.87220205  0.19542275  0.65047736    -0.47150
N498        N  0.87815052  0.06567410  0.70970840    -0.47380
C499        C  0.79246332  0.12838378  0.66254587     0.41940
N500        N  0.83805924  0.12770190  0.72468405     0.00810
N501        N  0.85441820  0.11444862  0.62763913    -0.26070
N502        N  0.85734798  0.18134253  0.68189603    -0.26560
N503        N  0.86968799  0.09799269  0.63135266     0.00450
H504        H  0.82374182  0.11667855  0.60676193     0.06340
H505        H  0.88570877  0.05146651  0.65518083     0.06370
N506        N  0.85398877  0.11229805  0.72998967    -0.26610
N507        N  0.92252965  0.11806445  0.67774627    -0.26220
N508        N  0.82694987  0.14082429  0.65900264     0.00810
C509        C  0.89177133  0.18026020  0.75345262     0.42210
C510        C  0.89658188  0.16698062  0.61327343    -0.07470
N511        N  0.88796659  0.08159653  0.67683249    -0.26220
H512        H  0.95263821  0.12448412  0.65694281     0.06360
N513        N  0.87385319  0.18313553  0.73899276    -0.47440
H514        H  0.88617869  0.18107803  0.60665197     0.06350
C515        C  0.84456204  0.08281407  0.60761338     0.42050
C516        C  0.86390727  0.20293044  0.68721037    -0.06970
Co517      Co  0.85771473  0.14656736  0.64374157     0.73820
N518        N  0.92522268  0.14123011  0.62019325    -0.47160
C519        C  0.82222031  0.10739440  0.75145948     0.42310
N520        N  0.81026263  0.13026728  0.64816520    -0.47150
Co521      Co  0.89749723  0.10752249  0.65439989     0.73890
C522        C  0.88384860  0.05948391  0.67183496    -0.07480
C523        C  0.90158397  0.15721786  0.74852875    -0.07040
N524        N  0.82191703  0.14512817  0.68049059    -0.26570
N525        N  0.93634651  0.12924079  0.71114888    -0.47330
H526        H  0.85524009  0.08517640  0.75570769     0.06320
C527        C  0.83829101  0.10673100  0.61297805    -0.07450
Cl528      Cl  0.87232919  0.13124366  0.67916796    -0.50460
C529        C  0.92037274  0.16091630  0.60788921     0.42070
H530        H  0.79161202  0.13907049  0.70071348     0.06290
N531        N  0.86446476  0.07849828  0.61970639    -0.47170
C532        C  0.60717199  0.15738246  0.91845147     0.41920
N533        N  0.62697129  0.14564462  0.88927205     0.00810
C534        C  0.71433688  0.06615622  0.87467006    -0.07060
H535        H  0.72968587  0.13784338  0.93570879     0.06310
C536        C  0.73517269  0.18612150  0.87187830    -0.07410
Co537      Co  0.65736035  0.10443786  0.89648667     0.74180
N538        N  0.70251809  0.12162928  0.91635451    -0.26590
Co539      Co  0.71784840  0.11754079  0.88464737     0.74070
C540        C  0.75114053  0.18276964  0.89075919     0.42030
N541        N  0.67808383  0.17939247  0.85600128     0.00430
N542        N  0.73113371  0.15156792  0.88589402     0.00540
N543        N  0.67678790  0.05800715  0.88223783    -0.47440
H544        H  0.62287522  0.12832782  0.94107708     0.06290
N545        N  0.68054909  0.11688555  0.92094464     0.00820
N546        N  0.73177311  0.11458874  0.85109479     0.00560
C547        C  0.75150247  0.10802906  0.82034590     0.42170
N548        N  0.65623088  0.17479596  0.86039065    -0.26050
C549        C  0.62362686  0.07280864  0.86363820    -0.06970
N550        N  0.61141212  0.16115925  0.89605140    -0.47150
N551        N  0.74887635  0.10154682  0.84265768    -0.47380
C552        C  0.60935546  0.07833995  0.84314673     0.41940
N553        N  0.68175591  0.07982493  0.88702548     0.00810
N554        N  0.65692532  0.13790368  0.82583554    -0.26070
N555        N  0.63325573  0.13113670  0.90548069    -0.26560
N556        N  0.67850290  0.14335662  0.82121850     0.00450
H557        H  0.62997816  0.12263868  0.80561425     0.06340
H558        H  0.73351895  0.13788220  0.80132232     0.06370
N559        N  0.70368087  0.08492015  0.88266957    -0.26610
N560        N  0.72375978  0.16601573  0.87013778    -0.26220
N561        N  0.62808435  0.10888122  0.85462084     0.00810
C562        C  0.69361287  0.13287542  0.95125218     0.42210
C563        C  0.64713341  0.19313208  0.87082864    -0.07470
N564        N  0.72407563  0.12961460  0.83597790    -0.26220
H565        H  0.73366885  0.20067241  0.86026030     0.06360
N566        N  0.67469590  0.12310868  0.94189973    -0.47440
H567        H  0.62953599  0.19461512  0.87668089     0.06350
C568        C  0.66555734  0.12921482  0.79024384     0.42050
C569        C  0.62171964  0.13720058  0.92481469    -0.06970
Co570      Co  0.64163886  0.14233719  0.85697628     0.73820
N571        N  0.68451764  0.20010376  0.86311808    -0.47160
C572        C  0.69657460  0.04860457  0.87458109     0.42310
N573        N  0.61320779  0.10112536  0.83909814    -0.47150
Co574      Co  0.70089472  0.15504017  0.84532659     0.73890
C575        C  0.73535637  0.12690472  0.81624639    -0.07480
C576        C  0.71211911  0.13155047  0.93460765    -0.07040
N577        N  0.63442938  0.09301582  0.86957008    -0.26570
N578        N  0.74803966  0.16068526  0.89853906    -0.47330
H579        H  0.73192061  0.06551462  0.86849687     0.06320
C580        C  0.64773873  0.12805327  0.80750322    -0.07450
Cl581      Cl  0.67947836  0.12957434  0.87103754    -0.50460
C582        C  0.66606133  0.20964504  0.87316723     0.42070
H583        H  0.62505017  0.05646933  0.87270778     0.06290
N584        N  0.68429112  0.13873999  0.79993193    -0.47170
C585        C  0.79374155  0.34451471  0.87075477     0.41920
N586        N  0.82902561  0.34807030  0.86144550     0.00810
C587        C  0.90232811  0.25446004  0.84653691    -0.07060
H588        H  0.85252193  0.24721006  0.91601604     0.06310
C589        C  0.88176435  0.32956578  0.94458054    -0.07410
Co590      Co  0.84911340  0.30254161  0.84789397     0.74180
N591        N  0.85377454  0.27356789  0.88952460    -0.26590
Co592      Co  0.88731392  0.28729004  0.88774434     0.74070
C593        C  0.87329605  0.30753570  0.95331254     0.42030
N594        N  0.87155472  0.37155234  0.90702803     0.00430
N595        N  0.88354361  0.30264019  0.91901051     0.00540
N596        N  0.87645269  0.26658065  0.82017010    -0.47440
H597        H  0.79402525  0.30535288  0.86175427     0.06290
N598        N  0.83873794  0.28010994  0.87395799     0.00820
N599        N  0.91960201  0.30166344  0.88514376     0.00560
C600        C  0.95452114  0.30574128  0.87568838     0.42170
N601        N  0.85728915  0.37695238  0.89038820    -0.26050
C602        C  0.86581765  0.32044465  0.80146675    -0.06970
N603        N  0.81113346  0.35969971  0.86904355    -0.47150
N604        N  0.93749914  0.29010329  0.87718729    -0.47380
C605        C  0.87383217  0.34258307  0.79243783     0.41940
N606        N  0.87501602  0.27897633  0.83924459     0.00810
N607        N  0.89364443  0.37584415  0.85560538    -0.26070
N608        N  0.82447448  0.32598338  0.85770433    -0.26560
N609        N  0.90965640  0.37091874  0.87076292     0.00450
H610        H  0.89293250  0.39660101  0.82483624     0.06340
H611        H  0.95463597  0.34481561  0.88403710     0.06370
N612        N  0.88989228  0.27237884  0.85496972    -0.26610
N613        N  0.88765226  0.32495099  0.92304226    -0.26220
N614        N  0.86524927  0.34686682  0.82741361     0.00810
C615        C  0.82054878  0.25402714  0.89335671     0.42210
C616        C  0.84136353  0.39191850  0.89811439    -0.07470
N617        N  0.92406270  0.32399779  0.88885940    -0.26220
H618        H  0.88318933  0.34622856  0.95306563     0.06360
N619        N  0.81887924  0.26876671  0.87543367    -0.47440
H620        H  0.82772697  0.39952536  0.88809603     0.06350
C621        C  0.92631138  0.39314905  0.84540569     0.42050
C622        C  0.80258195  0.32198981  0.86318419    -0.06970
Co623      Co  0.86091081  0.36215544  0.85829898     0.73820
N624        N  0.86557912  0.38194106  0.92671742    -0.47160
C625        C  0.89360200  0.25098348  0.82316752     0.42310
N626        N  0.87339084  0.35795837  0.80957031    -0.47150
Co627      Co  0.89911348  0.34806669  0.89830090     0.73890
C628        C  0.94602754  0.32812028  0.88344440    -0.07480
C629        C  0.84401200  0.25682725  0.90253731    -0.07040
N630        N  0.86059440  0.32488022  0.82317859    -0.26570
N631        N  0.87535026  0.29149488  0.93691690    -0.47330
H632        H  0.91491044  0.24437726  0.85593727     0.06320
C633        C  0.90229344  0.38979206  0.83937107    -0.07450
Cl634      Cl  0.87422123  0.32496059  0.87311832    -0.50460
C635        C  0.84632829  0.39497990  0.92225154     0.42070
H636        H  0.86343354  0.30398548  0.79279519     0.06290
N637        N  0.92983461  0.38105061  0.86533815    -0.47170
C638        C  0.29331462  0.16245998  0.63227357     0.41920
N639        N  0.32839215  0.15754938  0.64031830     0.00810
C640        C  0.40433754  0.24791585  0.65457556    -0.07060
H641        H  0.35477464  0.25549517  0.58477428     0.06310
C642        C  0.38257365  0.17103047  0.55781761    -0.07410
Co643      Co  0.34970513  0.20198729  0.65411453     0.74180
N644        N  0.35518296  0.22985968  0.61197306    -0.26590
Co645      Co  0.38802121  0.21451329  0.61408703     0.74070
C646        C  0.37685063  0.19342885  0.54797539     0.42030
N647        N  0.36896986  0.12978501  0.59604768     0.00430
N648        N  0.38386052  0.19834963  0.58307177     0.00540
N649        N  0.37762943  0.23756436  0.68085098    -0.47440
H650        H  0.29402573  0.20098632  0.64235842     0.06290
N651        N  0.34006279  0.22442882  0.62789885     0.00820
N652        N  0.41932776  0.19837906  0.61728187     0.00560
C653        C  0.45380938  0.19293459  0.62702999     0.42170
N654        N  0.35428835  0.12566908  0.61267505    -0.26050
C655        C  0.36610124  0.18389221  0.70050616    -0.06970
N656        N  0.31018663  0.14672777  0.63249788    -0.47150
N657        N  0.43775899  0.20937591  0.62471844    -0.47380
C658        C  0.37492084  0.16183291  0.70931449     0.41940
N659        N  0.37631938  0.22441449  0.66232775     0.00810
N660        N  0.39079248  0.12556205  0.64744608    -0.26070
N661        N  0.32442981  0.17962533  0.64481546    -0.26560
N662        N  0.40701957  0.12951160  0.63228719     0.00450
H663        H  0.38900448  0.10529663  0.67850193     0.06340
H664        H  0.45266358  0.15394187  0.61877044     0.06370
N665        N  0.39146319  0.23009174  0.64653030    -0.26610
N666        N  0.38699550  0.17573759  0.57963093    -0.26220
N667        N  0.36482531  0.15749836  0.67454698     0.00810
C668        C  0.32296136  0.25105026  0.60839186     0.42210
C669        C  0.33772092  0.11112968  0.60533697    -0.07470
N670        N  0.42283224  0.17577320  0.61400706    -0.26220
H671        H  0.38426047  0.15422355  0.54964861     0.06360
N672        N  0.32071189  0.23659173  0.62646131    -0.47440
H673        H  0.32344053  0.10465797  0.61545703     0.06350
C674        C  0.42270095  0.10700728  0.65800464     0.42050
C675        C  0.30249319  0.18436041  0.64024407    -0.06970
Co676      Co  0.35911859  0.14139267  0.64416832     0.73820
N677        N  0.36296645  0.11872120  0.57674282    -0.47160
C678        C  0.39520399  0.25262723  0.67764983     0.42310
N679        N  0.37408492  0.14671734  0.69195199    -0.47150
Co680      Co  0.39726108  0.15239737  0.60464901     0.73890
C681        C  0.44456884  0.17087326  0.61947060    -0.07480
C682        C  0.34604000  0.24672004  0.59868909    -0.07040
N683        N  0.36035727  0.17946713  0.67890590    -0.26570
N684        N  0.37812539  0.20962336  0.56433409    -0.47330
H685        H  0.41698022  0.25763288  0.64483797     0.06320
C686        C  0.39872738  0.11140388  0.66386514    -0.07450
Cl687      Cl  0.37370810  0.17770840  0.62902321    -0.50460
C688        C  0.34312284  0.10662209  0.58141643     0.42070
H689        H  0.36412505  0.20053602  0.70885535     0.06290
N690        N  0.42672384  0.11862849  0.63787096    -0.47170
C691        C  0.10821127  0.34504884  0.57506703     0.41920
N692        N  0.12579350  0.35727274  0.60556468     0.00810
C693        C  0.21354202  0.43414803  0.62891833    -0.07060
H694        H  0.23096928  0.36916599  0.56240532     0.06310
C695        C  0.23206058  0.31382648  0.62439993    -0.07410
Co696      Co  0.15689046  0.39823966  0.60192849     0.74180
N697        N  0.20277575  0.38196530  0.58287352    -0.26590
Co698      Co  0.21684878  0.38349908  0.61497774     0.74070
C699        C  0.24902401  0.31773196  0.60640868     0.42030
N700        N  0.17413258  0.32103067  0.63773172     0.00430
N701        N  0.22946298  0.34919277  0.61205351     0.00540
N702        N  0.17623546  0.44304003  0.62145122    -0.47440
H703        H  0.12519504  0.37479309  0.55377284     0.06290
N704        N  0.18091127  0.38690048  0.57827130     0.00820
N705        N  0.22960727  0.38400769  0.64869556     0.00560
C706        C  0.24963779  0.38837022  0.67950262     0.42170
N707        N  0.15241101  0.32636736  0.63384288    -0.26050
C708        C  0.12213594  0.42875073  0.63429984    -0.06970
N709        N  0.11120164  0.34146380  0.59765517    -0.47150
N710        N  0.24703531  0.39609324  0.65768543    -0.47380
C711        C  0.10737745  0.42281695  0.65449720     0.41940
N712        N  0.18124206  0.42180458  0.61452571     0.00810
N713        N  0.15271817  0.36082419  0.66994557    -0.26070
N714        N  0.13295515  0.37211380  0.59005767    -0.26560
N715        N  0.17404188  0.35474605  0.67501692     0.00450
H716        H  0.12443885  0.37375907  0.69003021     0.06340
H717        H  0.23014106  0.35855310  0.69742868     0.06370
N718        N  0.20304979  0.41622316  0.61890409    -0.26610
N719        N  0.22097338  0.33404154  0.62660115    -0.26220
N720        N  0.12591021  0.39234459  0.64203512     0.00810
C721        C  0.19498195  0.37475857  0.54694049     0.42210
C722        C  0.14193860  0.30798753  0.62488811    -0.07470
N723        N  0.22118179  0.36847677  0.66296519    -0.26220
H724        H  0.22973623  0.29884792  0.63537611     0.06360
N725        N  0.17566579  0.38284775  0.55682298    -0.47440
H726        H  0.12378988  0.30689856  0.62081432     0.06350
C727        C  0.15927223  0.36562748  0.70617788     0.42050
C728        C  0.12278617  0.36590118  0.56990148    -0.06970
Co729      Co  0.13887476  0.35884341  0.63831239     0.73820
N730        N  0.17912860  0.29961416  0.63156849    -0.47160
C731        C  0.19562257  0.45139850  0.63113079     0.42310
N732        N  0.11101302  0.39978754  0.65765139    -0.47150
Co733      Co  0.19739249  0.34407856  0.65109709     0.73890
C734        C  0.23244076  0.37004526  0.68294101    -0.07480
C735        C  0.21310024  0.37440791  0.56390879    -0.07040
N736        N  0.13282530  0.40867462  0.62794233    -0.26570
N737        N  0.24696492  0.34041830  0.59994406    -0.47330
H738        H  0.23113483  0.43448257  0.63509332     0.06320
C739        C  0.14231630  0.36860728  0.68856399    -0.07450
Cl740      Cl  0.17763314  0.37146254  0.62651169    -0.50460
C741        C  0.15939011  0.28994477  0.62391108     0.42070
H742        H  0.12470120  0.44531440  0.62597387     0.06290
N743        N  0.17863030  0.35704353  0.69690501    -0.47170
C744        C  0.37168398  0.28942944  0.83485291     0.41920
N745        N  0.36283478  0.32500844  0.83952797     0.00810
C746        C  0.34373403  0.40287842  0.75240376    -0.07060
H747        H  0.41622188  0.35630321  0.74286489     0.06310
C748        C  0.44306990  0.38304068  0.82678041    -0.07410
Co749      Co  0.34756534  0.34660251  0.79641786     0.74180
N750        N  0.38979801  0.35474408  0.76910195    -0.26590
Co751      Co  0.38625905  0.38783015  0.78430777     0.74070
C752        C  0.45249142  0.37545215  0.80501626     0.42030
N753        N  0.40567446  0.36864137  0.86727587     0.00430
N754        N  0.41780457  0.38505518  0.79977800     0.00540
N755        N  0.31870774  0.37467626  0.76285027    -0.47440
H756        H  0.36048584  0.29000004  0.79712071     0.06290
N757        N  0.37445121  0.33868100  0.77430423     0.00820
N758        N  0.38170568  0.41920172  0.80026603     0.00560
C759        C  0.37055148  0.45355658  0.80575073     0.42170
N760        N  0.38978087  0.35269431  0.87084457    -0.26050
C761        C  0.30050349  0.36230303  0.81360854    -0.06970
N762        N  0.37168405  0.30695470  0.84990814    -0.47150
N763        N  0.37347966  0.43749145  0.78953336    -0.47380
C764        C  0.29141173  0.37119645  0.83504127     0.41940
N765        N  0.33811410  0.37345159  0.77470007     0.00810
N766        N  0.35292245  0.38786390  0.87152562    -0.26070
N767        N  0.35788105  0.32080998  0.81798087    -0.26560
N768        N  0.36732087  0.40512461  0.86791709     0.00450
H769        H  0.32246133  0.38360552  0.89193644     0.06340
H770        H  0.37891634  0.45258347  0.84413337     0.06370
N771        N  0.35315858  0.38965771  0.76915182    -0.26610
N772        N  0.42132265  0.38845002  0.82197111    -0.26220
N773        N  0.32608168  0.36008133  0.84022559     0.00810
C774        C  0.39420099  0.32302177  0.74717509     0.42210
C775        C  0.39808287  0.33624096  0.88498453    -0.07470
N776        N  0.38490779  0.42279540  0.82249641    -0.26220
H777        H  0.45090720  0.38345251  0.84356872     0.06360
N778        N  0.37610623  0.31985066  0.76139154    -0.47440
H779        H  0.38864760  0.32122149  0.89109962     0.06350
C780        C  0.34144214  0.41889274  0.89178599     0.42050
C781        C  0.36275977  0.29862289  0.81342018    -0.06970
Co782      Co  0.35744992  0.35587838  0.85566965     0.73820
N783        N  0.42524845  0.36369499  0.87859788    -0.47160
C784        C  0.32047869  0.39304211  0.74863263     0.42310
N785        N  0.30822437  0.36926670  0.85062943    -0.47150
Co786      Co  0.39564635  0.39718318  0.84511500     0.73890
C787        C  0.37854237  0.44448033  0.82742922    -0.07480
C788        C  0.40319001  0.34649251  0.75199324    -0.07040
N789        N  0.32208124  0.35603561  0.81843797    -0.26570
N790        N  0.43616949  0.37720570  0.78899336    -0.47330
H791        H  0.35231972  0.41688720  0.74341465     0.06320
C792        C  0.33645486  0.39459525  0.88616380    -0.07450
Cl793      Cl  0.37185588  0.37197313  0.82036237    -0.50460
C794        C  0.42175132  0.34312614  0.89004500     0.42070
H795        H  0.29222204  0.36112557  0.79709564     0.06290
N796        N  0.36115702  0.42423355  0.87972383    -0.47170
C797        C  0.15223684  0.39316698  0.92593490     0.41920
N798        N  0.14103182  0.37554625  0.89526506     0.00810
C799        C  0.06589944  0.28612970  0.87140057    -0.07060
H800        H  0.13069817  0.26920965  0.93716255     0.06310
C801        C  0.18559851  0.26961805  0.87661133    -0.07410
Co802      Co  0.10046825  0.34374055  0.89865252     0.74180
N803        N  0.11721423  0.29774417  0.91735992    -0.26590
Co804      Co  0.11606302  0.28393166  0.88520094     0.74070
C805        C  0.18140583  0.25266869  0.89467473     0.42030
N806        N  0.17788121  0.32797443  0.86155071     0.00430
N807        N  0.15019138  0.27186751  0.88815389     0.00540
N808        N  0.05629442  0.32355735  0.87889810    -0.47440
H809        H  0.12308215  0.37544247  0.94698560     0.06290
N810        N  0.11166446  0.31952288  0.92243533     0.00820
N811        N  0.11572966  0.27113834  0.85156725     0.00560
C812        C  0.11223414  0.24986674  0.82133875     0.42170
N813        N  0.17221553  0.34960398  0.86625772    -0.26050
C814        C  0.07009628  0.37870780  0.86627194    -0.06970
N815        N  0.15646701  0.39042669  0.90345348    -0.47150
N816        N  0.10430096  0.25302647  0.84296984    -0.47380
C817        C  0.07612787  0.39389369  0.84631670     0.41940
N818        N  0.07744549  0.31894547  0.88585725     0.00810
N819        N  0.13766118  0.34878572  0.83052021    -0.26070
N820        N  0.12613858  0.36805606  0.91057646    -0.26560
N821        N  0.14375055  0.32732183  0.82534451     0.00450
H822        H  0.12436690  0.37714741  0.81054990     0.06340
H823        H  0.14235237  0.26887896  0.80360877     0.06370
N824        N  0.08342030  0.29711248  0.88140543    -0.26610
N825        N  0.16541014  0.28050410  0.87379205    -0.26220
N826        N  0.10632924  0.37525207  0.85884614     0.00810
C827        C  0.12373727  0.30477031  0.95331277     0.42210
C828        C  0.19056291  0.36046094  0.87472314    -0.07470
N829        N  0.13130030  0.27940054  0.83734850    -0.26220
H830        H  0.20074477  0.27194275  0.86604156     0.06360
N831        N  0.11518280  0.32434617  0.94413731    -0.47440
H832        H  0.19109667  0.37857229  0.87956071     0.06350
C833        C  0.13251186  0.34208472  0.79428842     0.42050
C834        C  0.13186844  0.37818193  0.93086504    -0.06970
Co835      Co  0.13967867  0.36263982  0.86234084     0.73820
N836        N  0.19960742  0.32352121  0.86616377    -0.47160
C837        C  0.04848670  0.30381317  0.86918797     0.42310
N838        N  0.09902492  0.39041881  0.84340897    -0.47150
Co839      Co  0.15508017  0.30398308  0.84901216     0.73890
C840        C  0.13045379  0.26716393  0.81779510    -0.07480
C841        C  0.12490771  0.28705510  0.93602187    -0.07040
N842        N  0.09003767  0.36798943  0.87270206    -0.26570
N843        N  0.15879471  0.25451835  0.90061900    -0.47330
H844        H  0.06595812  0.26841475  0.86517679     0.06320
C845        C  0.12965710  0.35918591  0.81196215    -0.07450
Cl846      Cl  0.12763020  0.32347266  0.87393389    -0.50460
C847        C  0.20893148  0.34320624  0.87446935     0.42070
H848        H  0.05364546  0.37610961  0.87458261     0.06290
N849        N  0.14115484  0.32263492  0.80352237    -0.47170
C850        C  0.20698986  0.13167710  0.65982831     0.41920
N851        N  0.17162580  0.13956120  0.65746826     0.00810
C852        C  0.09885297  0.15355028  0.74941600    -0.07060
H853        H  0.14863569  0.08352826  0.75606270     0.06310
C854        C  0.11919314  0.05565464  0.67206260    -0.07410
Co855      Co  0.15202001  0.15292802  0.70219684     0.74180
N856        N  0.14748692  0.10997017  0.72959373    -0.26590
Co857      Co  0.11375413  0.11217150  0.71567308     0.74070
C858        C  0.12788401  0.04619477  0.69342166     0.42030
N859        N  0.13019569  0.09472937  0.63168637     0.00430
N860        N  0.11724123  0.08078875  0.69943433     0.00540
N861        N  0.12595372  0.17968219  0.73887397    -0.47440
H862        H  0.20832508  0.14160642  0.69802550     0.06290
N863        N  0.16251708  0.12595477  0.72336225     0.00820
N864        N  0.08175165  0.11566591  0.70117086     0.00560
C865        C  0.04751737  0.12720248  0.69722521     0.42170
N866        N  0.14452910  0.11184586  0.62706930    -0.26050
C867        C  0.13276802  0.19959586  0.68695773    -0.06970
N868        N  0.18905797  0.13149802  0.64577774    -0.47150
N869        N  0.06398747  0.12371076  0.71277193    -0.47380
C870        C  0.12558578  0.21015048  0.66561277     0.41940
N871        N  0.12652891  0.16093244  0.72574763     0.00810
N872        N  0.10849488  0.14743592  0.62865681    -0.26070
N873        N  0.17668821  0.14400945  0.67893210    -0.26560
N874        N  0.09232308  0.13191332  0.63267108     0.00450
H875        H  0.11084300  0.17788318  0.60717198     0.06340
H876        H  0.04720057  0.11996032  0.65858195     0.06370
N877        N  0.11116604  0.14513767  0.73153497    -0.26610
N878        N  0.11308711  0.07735096  0.67735149    -0.26220
N879        N  0.13630313  0.17521247  0.65928227     0.00810
C880        C  0.18061440  0.10687258  0.74957934     0.42210
C881        C  0.16056815  0.10454479  0.61204211    -0.07470
N882        N  0.07742243  0.11297061  0.67898394    -0.26220
H883        H  0.11842724  0.04785555  0.65523549     0.06360
N884        N  0.18215028  0.12492738  0.73489374    -0.47440
H885        H  0.17450206  0.11497490  0.60518526     0.06350
C886        C  0.07724865  0.15689702  0.60876469     0.42050
C887        C  0.19896585  0.13951852  0.68215230    -0.06970
Co888      Co  0.14065458  0.14402901  0.64302623     0.73820
N889        N  0.13618405  0.07514596  0.62059015    -0.47160
C890        C  0.10856788  0.17686121  0.75393464     0.42310
N891        N  0.12755685  0.19367613  0.64941238    -0.47150
Co892      Co  0.10229886  0.10331221  0.65499676     0.73890
C893        C  0.05575059  0.11961216  0.67502688    -0.07480
C894        C  0.15721550  0.09708045  0.74641211    -0.07040
N895        N  0.14003560  0.17843764  0.68124240    -0.26570
N896        N  0.12614639  0.06248639  0.70962749    -0.47330
H897        H  0.08609791  0.14395461  0.75912619     0.06320
C898        C  0.10086368  0.16348255  0.61386455    -0.07450
Cl899      Cl  0.12703857  0.12799000  0.67901192    -0.50460
C900        C  0.15556897  0.08007016  0.60790057     0.42070
H901        H  0.13262800  0.20679054  0.70402001     0.06290
N902        N  0.07301234  0.13684506  0.62089925    -0.47170
C903        C  0.33913485  0.21112032  0.87629581     0.41920
N904        N  0.34341265  0.17687010  0.86250464     0.00810
C905        C  0.25349894  0.10074074  0.84480064    -0.07060
H906        H  0.24491954  0.14744235  0.91664923     0.06310
C907        C  0.33016186  0.11862058  0.94241430    -0.07410
Co908      Co  0.29849368  0.15677772  0.84839002     0.74180
N909        N  0.27118550  0.14889466  0.89024206    -0.26590
Co910      Co  0.28616501  0.11587322  0.88640629     0.74070
C911        C  0.30817149  0.12434568  0.95285837     0.42030
N912        N  0.37074638  0.13342097  0.90387752     0.00430
N913        N  0.30264431  0.11862433  0.91752941     0.00540
N914        N  0.26334685  0.12920118  0.81995273    -0.47440
H915        H  0.30035162  0.21088097  0.86693329     0.06290
N916        N  0.27676644  0.16506798  0.87532798     0.00820
N917        N  0.30178555  0.08422234  0.88189421     0.00560
C918        C  0.30638304  0.04857207  0.87477712     0.42170
N919        N  0.37516348  0.14850421  0.88761468    -0.26050
C920        C  0.31469057  0.14245632  0.80092518    -0.06970
N921        N  0.35423139  0.19377328  0.87301235    -0.47150
N922        N  0.29038263  0.06524583  0.87629752    -0.47380
C923        C  0.33580473  0.13321169  0.79128396     0.41940
N924        N  0.27566525  0.13043905  0.83900440     0.00810
N925        N  0.37377297  0.11332668  0.85132766    -0.26070
N926        N  0.32147910  0.18154612  0.85904843    -0.26560
N927        N  0.37002380  0.09658283  0.86612591     0.00450
H928        H  0.39420854  0.11609546  0.82059266     0.06340
H929        H  0.34534222  0.05001488  0.88196437     0.06370
N930        N  0.27039353  0.11411639  0.85389406    -0.26610
N931        N  0.32512445  0.11516519  0.92047273    -0.26220
N932        N  0.34185696  0.14199451  0.82603454     0.00810
C933        C  0.24983530  0.18091046  0.89520829     0.42210
C934        C  0.39020175  0.16446695  0.89523018    -0.07470
N935        N  0.32423047  0.08057102  0.88476899    -0.26220
H936        H  0.34695592  0.11647832  0.95022627     0.06360
N937        N  0.26440408  0.18428419  0.87751684    -0.47440
H938        H  0.39686745  0.17899970  0.88547758     0.06350
C939        C  0.39255936  0.08135188  0.84001127     0.42050
C940        C  0.31714891  0.20284910  0.86694739    -0.06970
Co941      Co  0.35873281  0.14561244  0.85633525     0.73820
N942        N  0.38192452  0.13868263  0.92329076    -0.47160
C943        C  0.24886085  0.11088493  0.82204568     0.42310
N944        N  0.35171550  0.13318749  0.80785581    -0.47150
Co945      Co  0.34780094  0.10568544  0.89454291     0.73890
C946        C  0.32869102  0.05839524  0.88045605    -0.07480
C947        C  0.25408434  0.15718724  0.90365995    -0.07040
N948        N  0.32002935  0.14724137  0.82257097    -0.26570
N949        N  0.29182402  0.12380928  0.93669735    -0.47330
H950        H  0.24497676  0.08641871  0.85335415     0.06320
C951        C  0.38789535  0.10572231  0.83472261    -0.07450
Cl952      Cl  0.32266548  0.13074687  0.87157220    -0.50460
C953        C  0.39444837  0.15844130  0.91901923     0.42070
H954        H  0.29798999  0.14474834  0.79298107     0.06290
N955        N  0.38103929  0.07693814  0.86011700    -0.47170
C956        C  0.58289364  0.89210468  0.65914666     0.41920
N957        N  0.61288541  0.87405421  0.64560817     0.00810
C958        C  0.62035268  0.78742847  0.56336895    -0.07060
H959        H  0.56463476  0.76945189  0.63036865     0.06310
C960        C  0.63425088  0.76548436  0.68168886    -0.07410
Co961      Co  0.60483665  0.84455926  0.60442473     0.74180
N962        N  0.58579461  0.79858910  0.62046329    -0.26590
Co963      Co  0.61773909  0.78402723  0.61524254     0.74070
C964        C  0.61546005  0.74882251  0.67852725     0.42030
N965        N  0.65072068  0.82407775  0.67550836     0.00430
N966        N  0.61827722  0.77062851  0.64866258     0.00540
N967        N  0.61258106  0.82566054  0.55744228    -0.47440
H968        H  0.55995449  0.87712969  0.63020750     0.06290
N969        N  0.58131180  0.82092024  0.61709518     0.00820
N970        N  0.65146871  0.77040589  0.61082008     0.00560
C971        C  0.68188709  0.74970676  0.60436765     0.42170
N972        N  0.64540775  0.84591129  0.67125935    -0.26050
C973        C  0.63627146  0.87918351  0.57255876    -0.06970
N974        N  0.60576550  0.88824023  0.66217088    -0.47150
N975        N  0.65924430  0.75245487  0.59850119    -0.47380
C976        C  0.65745202  0.89297498  0.57744074     0.41940
N977        N  0.61319717  0.82073782  0.57933594     0.00810
N978        N  0.67759505  0.84638257  0.63381998    -0.26070
N979        N  0.59634135  0.86807669  0.63140855    -0.26560
N980        N  0.68266517  0.82438631  0.63728473     0.00450
H981        H  0.69708960  0.87514492  0.62091716     0.06340
H982        H  0.70232870  0.76875805  0.63223578     0.06370
N983        N  0.61761832  0.79845232  0.58322900    -0.26610
N984        N  0.63479565  0.77792767  0.66234006    -0.26220
N985        N  0.64647529  0.87457223  0.60765871     0.00810
C986        C  0.54941371  0.80618776  0.62735628     0.42210
C987        C  0.63901469  0.85618858  0.69034115    -0.07470
N988        N  0.66733641  0.77844637  0.62480505    -0.26220
H989        H  0.64678534  0.76652455  0.69537072     0.06360
N990        N  0.55966618  0.82614225  0.62123630    -0.47440
H991        H  0.63496878  0.87439507  0.69236822     0.06350
C992        C  0.71353401  0.83911724  0.62375291     0.42050
C993        C  0.57665848  0.87881876  0.63831598    -0.06970
Co994      Co  0.64602416  0.86058177  0.64008862     0.73820
N995        N  0.64879491  0.81868517  0.69726978    -0.47160
C996        C  0.61662936  0.80551668  0.54665753     0.42310
N997        N  0.66224851  0.88911681  0.59958388    -0.47150
Co998      Co  0.65939784  0.80139469  0.65046621     0.73890
C999        C  0.68700643  0.76688526  0.62180487    -0.07480
C1000       C  0.56653941  0.78789158  0.62715339    -0.07040
N1001       N  0.63091625  0.86824059  0.59252659    -0.26570
N1002       N  0.60648643  0.75282765  0.65744221    -0.47330
H1003       H  0.62332131  0.76898794  0.56111902     0.06320
C1004       C  0.69573374  0.85678422  0.62464870    -0.07450
Cl1005     Cl  0.63189509  0.82259603  0.62746636    -0.50460
C1006       C  0.64105070  0.83816712  0.70712359     0.42070
H1007       H  0.62684182  0.87756673  0.55666608     0.06290
N1008       N  0.70391214  0.81921346  0.63111958    -0.47170
C1009       C  0.89026993  0.65432107  0.57737883     0.41920
N1010       N  0.87262022  0.64060684  0.60734850     0.00810
C1011       C  0.78475431  0.56106135  0.62225122    -0.07060
H1012       H  0.77006148  0.63451165  0.56317431     0.06310
C1013       C  0.76669698  0.68107907  0.62893697    -0.07410
Co1014     Co  0.84212263  0.59902552  0.60067262     0.74180
N1015       N  0.79671044  0.61720700  0.58198841    -0.26590
Co1016     Co  0.78228841  0.61254399  0.61398746     0.74070
C1017       C  0.75067948  0.67842584  0.60980267     0.42030
N1018       N  0.82410509  0.67263555  0.64455851     0.00430
N1019       N  0.76994003  0.64675421  0.61422153     0.00540
N1020       N  0.82228112  0.55257484  0.61468607    -0.47440
H1021       H  0.87483572  0.62487011  0.55493125     0.06290
N1022       N  0.81859127  0.61236249  0.57752157     0.00820
N1023       N  0.76900771  0.60906785  0.64789581     0.00560
C1024       C  0.74875021  0.60348354  0.67855317     0.42170
N1025       N  0.84562705  0.66789023  0.63906968    -0.26050
C1026       C  0.87646866  0.56648051  0.63252533    -0.06970
N1027       N  0.88666138  0.65738421  0.60004319    -0.47150
N1028       N  0.75083858  0.59733034  0.65607031    -0.47380
C1029       C  0.89132078  0.57198423  0.65270969     0.41940
N1030       N  0.81761926  0.57451445  0.61023459     0.00810
N1031       N  0.84598917  0.63056046  0.67188280    -0.26070
N1032       N  0.86629743  0.62604045  0.59118908    -0.26560
N1033       N  0.82451966  0.63544542  0.67747920     0.00450
H1034       H  0.87484187  0.61759995  0.69096261     0.06340
H1035       H  0.76923316  0.63107193  0.69831666     0.06370
N1036       N  0.79577457  0.57979366  0.61473024    -0.26610
N1037       N  0.77775112  0.66065850  0.63032933    -0.26220
N1038       N  0.87303455  0.60264794  0.64126699     0.00810
C1039       C  0.80650390  0.63002900  0.54756702     0.42210
C1040       C  0.85586125  0.68706008  0.63197374    -0.07470
N1041       N  0.77789478  0.62301288  0.66341754    -0.26220
H1042       H  0.76872514  0.69552777  0.64063585     0.06360
N1043       N  0.82488994  0.61976306  0.55729202    -0.47440
H1044       H  0.87389290  0.68896300  0.62763307     0.06350
C1045       C  0.84001653  0.62350392  0.70821556     0.42050
C1046       C  0.87684449  0.63304198  0.57148478    -0.06970
Co1047     Co  0.85962271  0.63587278  0.64029223     0.73820
N1048       N  0.81892726  0.69465045  0.64203843    -0.47160
C1049       C  0.80226417  0.54339661  0.62204265     0.42310
N1050       N  0.88803675  0.59480479  0.65654598    -0.47150
Co1051     Co  0.80127352  0.64834590  0.65449597     0.73890
C1052       C  0.76668204  0.62048549  0.68321102    -0.07480
C1053       C  0.78745421  0.62792266  0.56381969    -0.07040
N1054       N  0.86588759  0.58683506  0.62663396    -0.26570
N1055       N  0.75325669  0.65643503  0.60178381    -0.47330
H1056       H  0.76715334  0.56047378  0.62843088     0.06320
C1057       C  0.85670966  0.62188451  0.68994324    -0.07450
Cl1058     Cl  0.82127294  0.62379404  0.62730511    -0.50460
C1059       C  0.83819720  0.70440339  0.63399688     0.42070
H1060       H  0.87436534  0.55002796  0.62378164     0.06290
N1061       N  0.82023181  0.63157005  0.69923125    -0.47170
C1062       C  0.65500200  0.57632479  0.89139434     0.41920
N1063       N  0.64269428  0.60657987  0.87253065     0.00810
C1064       C  0.56438075  0.62468151  0.78598432    -0.07060
H1065       H  0.63416611  0.56335169  0.76899978     0.06310
C1066       C  0.68391004  0.62710247  0.76609526    -0.07410
Co1067     Co  0.60186741  0.60101339  0.84208428     0.74180
N1068       N  0.61864459  0.58242508  0.79676041    -0.26590
Co1069     Co  0.61537637  0.61490995  0.78284431     0.74070
C1070       C  0.68000388  0.60841719  0.74957934     0.42030
N1071       N  0.67669545  0.64235582  0.82382400     0.00430
N1072       N  0.64924630  0.61357999  0.76981205     0.00540
N1073       N  0.55631584  0.61621883  0.82294442    -0.47440
H1074       H  0.62557752  0.55397561  0.87499234     0.06290
N1075       N  0.61388866  0.57711162  0.81835576     0.00820
N1076       N  0.61322053  0.64915699  0.77004699     0.00560
C1077       C  0.60927556  0.67963329  0.74877005     0.42170
N1078       N  0.67161420  0.63668236  0.84506410    -0.26050
C1079       C  0.57048630  0.63362089  0.87639744    -0.06970
N1080       N  0.65828932  0.59925017  0.88745152    -0.47150
N1081       N  0.60199596  0.65733205  0.75184254    -0.47380
C1082       C  0.57617429  0.65396975  0.89125192     0.41940
N1083       N  0.57814510  0.61244099  0.81825945     0.00810
N1084       N  0.63558062  0.67189830  0.84535325    -0.26070
N1085       N  0.62821461  0.59034785  0.86596477    -0.26560
N1086       N  0.64134471  0.67757663  0.82429455     0.00450
H1087       H  0.62107671  0.69128475  0.87316703     0.06340
H1088       H  0.63858407  0.69855432  0.76757305     0.06370
N1089       N  0.58319319  0.61721732  0.79665543    -0.26610
N1090       N  0.66399064  0.62904480  0.77765034    -0.26220
N1091       N  0.60652842  0.64211732  0.87280068     0.00810
C1092       C  0.62933623  0.54701657  0.80433823     0.42210
C1093       C  0.69001194  0.62702584  0.85447841    -0.07470
N1094       N  0.62817820  0.66427019  0.77812518    -0.26220
H1095       H  0.69871113  0.63845436  0.76790756     0.06360
N1096       N  0.61978697  0.55562696  0.82346779    -0.47440
H1097       H  0.69167211  0.62137931  0.87201799     0.06350
C1098       C  0.62867610  0.70867955  0.83903658     0.42050
C1099       C  0.63445104  0.57037518  0.87691403    -0.06970
Co1100     Co  0.63965155  0.63986517  0.85928125     0.73820
N1101       N  0.69817747  0.63774051  0.81834131    -0.47160
C1102       C  0.54689270  0.62419032  0.80347196     0.42310
N1103       N  0.59896871  0.65752906  0.88797335    -0.47150
Co1104     Co  0.65307910  0.65390677  0.80125017     0.73890
C1105       C  0.62684989  0.68396990  0.76608684    -0.07480
C1106       C  0.62812661  0.56415951  0.78649697    -0.07040
N1107       N  0.59058335  0.62749563  0.86579311    -0.26570
N1108       N  0.65785203  0.60118707  0.75250170    -0.47330
H1109       H  0.56318800  0.62958489  0.76815057     0.06320
C1110       C  0.62622735  0.69015414  0.85544019    -0.07450
Cl1111     Cl  0.62740197  0.62731926  0.82133431    -0.50460
C1112       C  0.70754286  0.62818081  0.83699118     0.42070
H1113       H  0.55408925  0.62483227  0.87436704     0.06290
N1114       N  0.63767208  0.69967002  0.81982477    -0.47170
C1115       C  0.92309455  0.84452541  0.60876722     0.41920
N1116       N  0.89252084  0.85725952  0.62626470     0.00810
C1117       C  0.87915992  0.93617786  0.71497422    -0.07060
H1118       H  0.93458975  0.86493523  0.73090306     0.06310
C1119       C  0.86995738  0.81480949  0.73165612    -0.07410
Co1120     Co  0.89834604  0.89795332  0.65745104     0.74180
N1121       N  0.91571498  0.87975193  0.70274108    -0.26590
Co1122     Co  0.88337917  0.88397416  0.71634782     0.74070
C1123       C  0.88815332  0.81851744  0.74864358     0.42030
N1124       N  0.85501794  0.82359786  0.67345952     0.00430
N1125       N  0.88362036  0.84970016  0.72871212     0.00540
N1126       N  0.88838200  0.94442918  0.67804580    -0.47440
H1127       H  0.94533852  0.87350638  0.62549086     0.06290
N1128       N  0.92126666  0.88457918  0.68124443     0.00820
N1129       N  0.84907846  0.88697820  0.72881760     0.00560
C1130       C  0.81755683  0.89219472  0.74807656     0.42170
N1131       N  0.86115901  0.82906321  0.65246301    -0.26050
C1132       C  0.86666807  0.93079142  0.62315220    -0.06970
N1133       N  0.90021858  0.84115182  0.61182306    -0.47150
N1134       N  0.84004637  0.89913512  0.74616319    -0.47380
C1135       C  0.84636445  0.92548968  0.60809679     0.41940
N1136       N  0.88821096  0.92194467  0.68172498     0.00810
N1137       N  0.82687856  0.86560246  0.65246393    -0.26070
N1138       N  0.90863008  0.87167478  0.63328761    -0.26560
N1139       N  0.82155821  0.86131606  0.67392905     0.00450
H1140       H  0.80828448  0.88112848  0.62488200     0.06340
H1141       H  0.79934184  0.86261692  0.72876588     0.06370
N1142       N  0.88300140  0.91676270  0.70324602    -0.26610
N1143       N  0.86835879  0.83506980  0.72031592    -0.26220
N1144       N  0.85785742  0.89458394  0.62623579     0.00810
C1145       C  0.95146773  0.86979645  0.69580439     0.42210
C1146       C  0.86952718  0.81050486  0.64215087    -0.07470
N1147       N  0.83422814  0.87200849  0.72033252    -0.26220
H1148       H  0.85857597  0.80002586  0.72956228     0.06360
N1149       N  0.94276500  0.87909086  0.67654938    -0.47440
H1150       H  0.87484176  0.80929048  0.62449094     0.06350
C1151       C  0.79172371  0.87831868  0.66041229     0.42050
C1152       C  0.92874728  0.86523313  0.62297882    -0.06970
Co1153     Co  0.85909433  0.86105991  0.63897893     0.73820
N1154       N  0.85769699  0.80140371  0.67781852    -0.47160
C1155       C  0.88307984  0.95405473  0.69825161     0.42310
N1156       N  0.84269900  0.90255694  0.61121512    -0.47150
Co1157     Co  0.84422823  0.84735865  0.69672112     0.73890
C1158       C  0.81408961  0.87390811  0.73124676    -0.07480
C1159       C  0.93386019  0.87046445  0.71322686    -0.07040
N1160       N  0.87249108  0.91036044  0.63361069    -0.26570
N1161       N  0.89544177  0.84079858  0.74616065    -0.47330
H1162       H  0.87547562  0.93741774  0.73308887     0.06320
C1163       C  0.80912886  0.87611811  0.64263146    -0.07450
Cl1164     Cl  0.87134293  0.87272571  0.67742509    -0.50460
C1165       C  0.86631893  0.79234686  0.65850353     0.42070
H1166       H  0.87566794  0.94711594  0.62542363     0.06290
N1167       N  0.80089099  0.86892989  0.67943973    -0.47170
C1168       C  0.84471415  0.60593921  0.92169305     0.41920
N1169       N  0.85663458  0.62494022  0.89190625     0.00810
C1170       C  0.93478950  0.71510390  0.87947107    -0.07060
H1171       H  0.86541032  0.73067085  0.93703537     0.06310
C1172       C  0.81376003  0.73360331  0.87438933    -0.07410
Co1173     Co  0.89633909  0.65688730  0.89773385     0.74180
N1174       N  0.87951360  0.70255588  0.91703067    -0.26590
Co1175     Co  0.88260396  0.71695490  0.88496579     0.74070
C1176       C  0.81832515  0.75054930  0.89242709     0.42030
N1177       N  0.82049533  0.67458186  0.85863018     0.00430
N1178       N  0.84876835  0.72988281  0.88669898     0.00540
N1179       N  0.94230892  0.67713180  0.88696074    -0.47440
H1180       H  0.87221540  0.62416900  0.94435510     0.06290
N1181       N  0.88439692  0.68054625  0.92179587     0.00820
N1182       N  0.88427354  0.72997559  0.85110227     0.00560
C1183       C  0.88923667  0.75017450  0.82036377     0.42170
N1184       N  0.82662898  0.65331419  0.86427355    -0.26050
C1185       C  0.92762219  0.62231898  0.86500292    -0.06970
N1186       N  0.84159922  0.60910201  0.89906146    -0.47150
N1187       N  0.89655024  0.74750826  0.84234933    -0.47380
C1188       C  0.92223901  0.60851337  0.84401913     0.41940
N1189       N  0.92009967  0.68134360  0.88744142     0.00810
N1190       N  0.86101914  0.65411375  0.82780032    -0.26070
N1191       N  0.87046996  0.63243832  0.90805537    -0.26560
N1192       N  0.85493441  0.67557551  0.82286889     0.00450
H1193       H  0.87464013  0.62626128  0.80743467     0.06340
H1194       H  0.85951834  0.73144625  0.80205344     0.06370
N1195       N  0.91524370  0.70345003  0.88316255    -0.26610
N1196       N  0.83357866  0.72181802  0.87198952    -0.26220
N1197       N  0.89189953  0.62692763  0.85600397     0.00810
C1198       C  0.87066006  0.69448144  0.95255388     0.42210
C1199       C  0.80922535  0.64326455  0.87503104    -0.07470
N1200       N  0.86882487  0.72200274  0.83653239    -0.26220
H1201       H  0.79872710  0.73188862  0.86353709     0.06360
N1202       N  0.87974014  0.67520386  0.94319517    -0.47440
H1203       H  0.80868823  0.62565703  0.88124522     0.06350
C1204       C  0.86686577  0.66160275  0.79154938     0.42050
C1205       C  0.86412144  0.62169032  0.92785849    -0.06970
Co1206     Co  0.85857471  0.63951601  0.85943270     0.73820
N1207       N  0.79876686  0.67894553  0.86359354    -0.47160
C1208       C  0.95235688  0.69757525  0.88238858     0.42310
N1209       N  0.89969274  0.61256977  0.83995692    -0.47150
Co1210     Co  0.84385571  0.69831070  0.84697414     0.73890
C1211       C  0.87080506  0.73340814  0.81667144    -0.07480
C1212       C  0.87098297  0.71277074  0.93565785    -0.07040
N1213       N  0.90760293  0.63320723  0.87104529    -0.26570
N1214       N  0.84062855  0.74765973  0.89888395    -0.47330
H1215       H  0.93636609  0.73363411  0.87661242     0.06320
C1216       C  0.86936739  0.64420098  0.80913353    -0.07450
Cl1217     Cl  0.87052497  0.67796806  0.87229463    -0.50460
C1218       C  0.79040597  0.65944115  0.87331588     0.42070
H1219       H  0.94393071  0.62396135  0.87387178     0.06290
N1220       N  0.85778673  0.68069807  0.80112005    -0.47170
C1221       C  0.60505172  0.92276308  0.84855377     0.41920
N1222       N  0.62428803  0.89283344  0.86107635     0.00810
C1223       C  0.71658880  0.88322899  0.93544179    -0.07060
H1224       H  0.72786776  0.93646202  0.85986167     0.06310
C1225       C  0.73026911  0.87185477  0.81579303    -0.07410
Co1226     Co  0.65699811  0.90069771  0.89946503     0.74180
N1227       N  0.70145838  0.91900479  0.87923006    -0.26590
Co1228     Co  0.71618583  0.88702327  0.88381883     0.74070
C1229       C  0.74765069  0.89014068  0.81854835     0.42030
N1230       N  0.67166792  0.85642629  0.82628807     0.00430
N1231       N  0.72787494  0.88671785  0.84970684     0.00540
N1232       N  0.67939222  0.89149320  0.94464736    -0.47440
H1233       H  0.62342443  0.94631034  0.87549180     0.06290
N1234       N  0.67991636  0.92444822  0.88478338     0.00820
N1235       N  0.72943949  0.85303906  0.88703863     0.00560
C1236       C  0.75011333  0.82245114  0.89269082     0.42170
N1237       N  0.65034234  0.86163334  0.83221694    -0.26050
C1238       C  0.62379823  0.86830652  0.93330192    -0.06970
N1239       N  0.60871289  0.89968053  0.84591447    -0.47150
N1240       N  0.74755995  0.84515437  0.89874996    -0.47380
C1241       C  0.60924683  0.84724674  0.92877669     0.41940
N1242       N  0.68249177  0.89159812  0.92242009     0.00810
N1243       N  0.65286494  0.82801643  0.86898350    -0.26070
N1244       N  0.63160155  0.90965621  0.87437402    -0.26560
N1245       N  0.67409989  0.82283269  0.86285643     0.00450
H1246       H  0.62569906  0.80802771  0.88438603     0.06340
H1247       H  0.73027345  0.80179665  0.86540345     0.06370
N1248       N  0.70414605  0.88691953  0.91665696    -0.26610
N1249       N  0.71921266  0.87086151  0.83596810    -0.26220
N1250       N  0.62670633  0.85852958  0.89794029     0.00810
C1251       C  0.69252447  0.95318384  0.86542960     0.42210
C1252       C  0.63896498  0.86915282  0.81402885    -0.07470
N1253       N  0.72090530  0.83724056  0.87310165    -0.26220
H1254       H  0.72792891  0.85984145  0.80172660     0.06360
N1255       N  0.67404398  0.94516970  0.87703826    -0.47440
H1256       H  0.62102459  0.87419897  0.81334723     0.06350
C1257       C  0.66055629  0.79152060  0.87648065     0.42050
C1258       C  0.62055011  0.92945081  0.86787189    -0.06970
Co1259     Co  0.63824115  0.85977924  0.86460917     0.73820
N1260       N  0.67543326  0.85936330  0.80437826    -0.47160
C1261       C  0.70012016  0.88654067  0.95358088     0.42310
N1262       N  0.61211926  0.84291812  0.90636195    -0.47150
Co1263     Co  0.69619872  0.84630720  0.84901472     0.73890
C1264       C  0.73257353  0.81733075  0.87561389    -0.07480
C1265       C  0.71076050  0.93626462  0.86727707    -0.07040
N1266       N  0.63395045  0.87398507  0.91291453    -0.26570
N1267       N  0.74532294  0.89839605  0.84020068    -0.47330
H1268       H  0.73493630  0.87977334  0.93612833     0.06320
C1269       C  0.64342299  0.80958164  0.87881336    -0.07450
Cl1270     Cl  0.67696425  0.87352113  0.87435401    -0.50460
C1271       C  0.65541318  0.86710035  0.79580730     0.42070
H1272       H  0.62596605  0.87772410  0.94918347     0.06290
N1273       N  0.67944366  0.80108279  0.86711694    -0.47170
C1274       C  0.34370599  0.89291871  0.58069968     0.41920
N1275       N  0.35899571  0.87568184  0.61009493     0.00810
C1276       C  0.43593284  0.78454248  0.61855188    -0.07060
H1277       H  0.36461166  0.76984199  0.56434900     0.06310
C1278       C  0.31643190  0.77019529  0.63483254    -0.07410
Co1279     Co  0.39852465  0.84379544  0.60062792     0.74180
N1280       N  0.37822964  0.79866494  0.58366485    -0.26590
Co1281     Co  0.38372916  0.78455671  0.61537737     0.74070
C1282       C  0.31761811  0.75401992  0.61546622     0.42030
N1283       N  0.32752099  0.82962234  0.65080818     0.00430
N1284       N  0.34921262  0.77379357  0.61750664     0.00540
N1285       N  0.44480205  0.82196643  0.60967033    -0.47440
H1286       H  0.37066777  0.87597592  0.55656606     0.06290
N1287       N  0.38325909  0.82046656  0.57830725     0.00820
N1288       N  0.38875634  0.77101178  0.64873094     0.00560
C1289       C  0.39530160  0.74909040  0.67816135     0.42170
N1290       N  0.33346753  0.85105825  0.64537683    -0.26050
C1291       C  0.43420827  0.87776961  0.62994379    -0.06970
N1292       N  0.34217288  0.88999187  0.60365183    -0.47150
N1293       N  0.40009615  0.75202242  0.65551224    -0.47380
C1294       C  0.43046201  0.89265092  0.65065827     0.41940
N1295       N  0.42245135  0.81835290  0.60874133     0.00810
N1296       N  0.37344473  0.84882607  0.67395366    -0.26070
N1297       N  0.37201339  0.86861809  0.59301501    -0.26560
N1298       N  0.36724192  0.82769491  0.68007478     0.00450
H1299       H  0.39110279  0.87632033  0.69170809     0.06340
H1300       H  0.36932385  0.76949029  0.70003616     0.06370
N1301       N  0.41689705  0.79658709  0.61392516    -0.26610
N1302       N  0.33663475  0.78169943  0.63460346    -0.26220
N1303       N  0.39899308  0.87506529  0.64103129     0.00810
C1304       C  0.36974925  0.80565303  0.54784394     0.42210
C1305       C  0.31492505  0.86397027  0.64272484    -0.07470
N1306       N  0.37601326  0.77981082  0.66522060    -0.26220
H1307       H  0.30321537  0.77178250  0.64783535     0.06360
N1308       N  0.37844992  0.82528280  0.55686261    -0.47440
H1309       H  0.31458058  0.88240238  0.63910196     0.06350
C1310       C  0.38100971  0.84324916  0.71021068     0.42050
C1311       C  0.36392668  0.87878414  0.57361467    -0.06970
Co1312     Co  0.36592084  0.86285951  0.64287759     0.73820
N1313       N  0.30503954  0.82689438  0.65223971    -0.47160
C1314       C  0.45404897  0.80152716  0.61596268     0.42310
N1315       N  0.40815582  0.88971682  0.65592436    -0.47150
Co1316     Co  0.35138873  0.80486431  0.65816074     0.73890
C1317       C  0.37907557  0.76740885  0.68436556    -0.07480
C1318       C  0.36954943  0.78797040  0.56537845    -0.07040
N1319       N  0.41338516  0.86755128  0.62534692    -0.26570
N1320       N  0.33874554  0.75691069  0.60587996    -0.47330
H1321       H  0.43668989  0.76633323  0.62313765     0.06320
C1322       C  0.38426988  0.85888989  0.69133345    -0.07450
Cl1323     Cl  0.37492233  0.82394264  0.62914939    -0.50460
C1324       C  0.29664118  0.84800956  0.64730906     0.42070
H1325       H  0.44994191  0.87512268  0.62030252     0.06290
N1326       N  0.37181230  0.82352423  0.70166190    -0.47170
C1327       C  0.29370722  0.63760162  0.83663778     0.41920
N1328       N  0.32894581  0.64407693  0.84188190     0.00810
C1329       C  0.40421360  0.65384979  0.75182489    -0.07060
H1330       H  0.34897238  0.58732615  0.74467805     0.06310
C1331       C  0.37218454  0.55691509  0.82659147    -0.07410
Co1332     Co  0.35081851  0.65738943  0.79836771     0.74180
N1333       N  0.35205864  0.61470638  0.77001212    -0.26590
Co1334     Co  0.38516381  0.61345279  0.78473307     0.74070
C1335       C  0.36302291  0.54892488  0.80484602     0.42030
N1336       N  0.36614921  0.59494390  0.86824779     0.00430
N1337       N  0.37778853  0.58228108  0.80006918     0.00540
N1338       N  0.38001207  0.68244061  0.76288968    -0.47440
H1339       H  0.29475726  0.64952343  0.79929319     0.06290
N1340       N  0.33843051  0.63205030  0.77569688     0.00820
N1341       N  0.41683930  0.61276854  0.79989543     0.00560
C1342       C  0.45272966  0.61333182  0.80371944     0.42170
N1343       N  0.35237921  0.61254550  0.87256441    -0.26050
C1344       C  0.37183227  0.70236975  0.81721237    -0.06970
N1345       N  0.31042981  0.63650069  0.85220104    -0.47150
N1346       N  0.43602101  0.61589946  0.78828550    -0.47380
C1347       C  0.38112828  0.71034711  0.83922583     0.41940
N1348       N  0.37775584  0.66374751  0.77593111     0.00810
N1349       N  0.39177285  0.64504164  0.87297083    -0.26070
N1350       N  0.32519119  0.64973806  0.82038899    -0.26560
N1351       N  0.40703324  0.62883005  0.86834808     0.00450
H1352       H  0.39168772  0.67566227  0.89437436     0.06340
H1353       H  0.45117861  0.60551773  0.84227219     0.06370
N1354       N  0.39140485  0.64653434  0.76984054    -0.26610
N1355       N  0.38091136  0.57786529  0.82213712    -0.26220
N1356       N  0.36843176  0.67551612  0.84241569     0.00810
C1357       C  0.31916676  0.61355345  0.74976242     0.42210
C1358       C  0.33552778  0.60551844  0.88697676    -0.07470
N1359       N  0.42036635  0.60847184  0.82195784    -0.26220
H1360       H  0.37210381  0.54831383  0.84304916     0.06360
N1361       N  0.31881393  0.63217666  0.76395998    -0.47440
H1362       H  0.32189218  0.61638319  0.89374358     0.06350
C1363       C  0.42401237  0.65303387  0.89195903     0.42050
C1364       C  0.30306043  0.64650855  0.81557557    -0.06970
Co1365     Co  0.35982859  0.64483024  0.85761268     0.73820
N1366       N  0.35944743  0.57555757  0.87918005    -0.47160
C1367       C  0.39682001  0.67805955  0.74750364     0.42310
N1368       N  0.37950012  0.69201307  0.85328544    -0.47150
Co1369     Co  0.39449719  0.60168478  0.84532138     0.73890
C1370       C  0.44289474  0.60869462  0.82598057    -0.07480
C1371       C  0.34157024  0.60209940  0.75349438    -0.07040
N1372       N  0.36412511  0.68091681  0.82101140    -0.26570
N1373       N  0.36767894  0.56510350  0.78907601    -0.47330
H1374       H  0.41550281  0.64299668  0.74164835     0.06320
C1375       C  0.40056898  0.66055508  0.88770998    -0.07450
Cl1376     Cl  0.37273307  0.62925007  0.82146634    -0.50460
C1377       C  0.33989010  0.58080417  0.89129373     0.42070
H1378       H  0.37054769  0.71126001  0.80099981     0.06290
N1379       N  0.42696885  0.63287991  0.87950360    -0.47170
C1380       C  0.15824556  0.70898456  0.62508275     0.41920
N1381       N  0.15402731  0.67369114  0.63564325     0.00810
C1382       C  0.24549244  0.59995631  0.65532902    -0.07060
H1383       H  0.25660771  0.64872054  0.58702033     0.06310
C1384       C  0.17236216  0.62107125  0.55505043    -0.07410
Co1385     Co  0.19806086  0.65364317  0.65167221     0.74180
N1386       N  0.22803037  0.64827589  0.61101068    -0.26590
Co1387     Co  0.21383428  0.61441217  0.61250147     0.74070
C1388       C  0.19414886  0.63023620  0.54672696     0.42030
N1389       N  0.12993485  0.63053059  0.59132522     0.00430
N1390       N  0.19911748  0.61809787  0.58058162     0.00540
N1391       N  0.23284100  0.62685110  0.68050288    -0.47440
H1392       H  0.19622794  0.70910203  0.63741084     0.06290
N1393       N  0.22114578  0.66348647  0.62639705     0.00820
N1394       N  0.19903791  0.58193315  0.61499745     0.00560
C1395       C  0.19430147  0.54667736  0.62406355     0.42170
N1396       N  0.12480504  0.64536030  0.60763583    -0.26050
C1397       C  0.17870209  0.63832236  0.69780268    -0.06970
N1398       N  0.14339109  0.69112692  0.62589134    -0.47150
N1399       N  0.21010165  0.56365285  0.62300756    -0.47380
C1400       C  0.15636098  0.63028955  0.70607865     0.41940
N1401       N  0.22091715  0.62754881  0.66120173     0.00810
N1402       N  0.12479503  0.60928392  0.64287946    -0.26070
N1403       N  0.17551917  0.67858296  0.64090949    -0.26560
N1404       N  0.12999557  0.59265411  0.62833140     0.00450
H1405       H  0.10275706  0.61132344  0.67263725     0.06340
H1406       H  0.15572809  0.54716425  0.61493027     0.06370
N1407       N  0.22785498  0.61215394  0.64599588    -0.26610
N1408       N  0.17691747  0.61418206  0.57634197    -0.26220
N1409       N  0.15362602  0.63779187  0.67081743     0.00810
C1410       C  0.24939808  0.68093617  0.60964111     0.42210
C1411       C  0.10988454  0.66130017  0.59982396    -0.07470
N1412       N  0.17688869  0.57770623  0.61083462    -0.26220
H1413       H  0.15571277  0.62044770  0.54671075     0.06360
N1414       N  0.23354819  0.68281501  0.62642896    -0.47440
H1415       H  0.10254910  0.67541729  0.60967840     0.06350
C1416       C  0.10646106  0.57694237  0.65327326     0.42050
C1417       C  0.17979558  0.70057850  0.63517435    -0.06970
Co1418     Co  0.13918378  0.64197676  0.63967391     0.73820
N1419       N  0.11909373  0.63592381  0.57173729    -0.47160
C1420       C  0.24881195  0.60987306  0.67852113     0.42310
N1421       N  0.14203176  0.62972354  0.68832004    -0.47150
Co1422     Co  0.15329835  0.60283124  0.60082528     0.73890
C1423       C  0.17239295  0.55561094  0.61599526    -0.07480
C1424       C  0.24599774  0.65770135  0.59943896    -0.07040
N1425       N  0.17517577  0.64281272  0.67579917    -0.26570
N1426       N  0.21015821  0.62724332  0.56299245    -0.47330
H1427       H  0.25549334  0.58685063  0.64651128     0.06320
C1428       C  0.11002508  0.60129869  0.65872210    -0.07450
Cl1429     Cl  0.17616677  0.62804983  0.62607636    -0.50460
C1430       C  0.10622053  0.65548663  0.57594475     0.42070
H1431       H  0.19467543  0.64112556  0.70699624     0.06290
N1432       N  0.11931999  0.57265074  0.63392574    -0.47170
C1433       C  0.15185739  0.92240475  0.60676728     0.41920
N1434       N  0.13944047  0.89214374  0.62580416     0.00810
C1435       C  0.06429706  0.87730041  0.71628406    -0.07060
H1436       H  0.13842899  0.93466639  0.72988734     0.06310
C1437       C  0.18487914  0.87151382  0.73118549    -0.07410
Co1438     Co  0.10053218  0.89908330  0.65815091     0.74180
N1439       N  0.11984968  0.91706213  0.70309256    -0.26590
Co1440     Co  0.11591629  0.88465951  0.71737420     0.74070
C1441       C  0.18189063  0.89004750  0.74811751     0.42030
N1442       N  0.17459904  0.85637104  0.67318280     0.00430
N1443       N  0.15024635  0.88531323  0.72912985     0.00540
N1444       N  0.05504079  0.88656556  0.67963469    -0.47440
H1445       H  0.12424720  0.94542510  0.62505744     0.06290
N1446       N  0.11478220  0.92259679  0.68159383     0.00820
N1447       N  0.11324759  0.85041334  0.73037314     0.00560
C1448       C  0.10807748  0.81921522  0.75046409     0.42170
N1449       N  0.16859815  0.86118608  0.65194034    -0.26050
C1450       C  0.06700002  0.86725159  0.62429933    -0.06970
N1451       N  0.15466695  0.89928500  0.61031898    -0.47150
N1452       N  0.10133421  0.84180390  0.74803861    -0.47380
C1453       C  0.07163791  0.84596369  0.61024964     0.41940
N1454       N  0.07729235  0.88890197  0.68329475     0.00810
N1455       N  0.13203379  0.82680871  0.65436649    -0.26070
N1456       N  0.12590613  0.90879699  0.63317586    -0.26560
N1457       N  0.13849084  0.82154159  0.67533871     0.00450
H1458       H  0.11605402  0.80679384  0.62772677     0.06340
H1459       H  0.13712785  0.80024524  0.73110016     0.06370
N1460       N  0.08304344  0.88364478  0.70468907    -0.26610
N1461       N  0.16449036  0.86991437  0.72043465    -0.26220
N1462       N  0.10248888  0.85713209  0.62808932     0.00810
C1463       C  0.13373203  0.95138122  0.69477530     0.42210
C1464       C  0.18666098  0.86969126  0.64081817    -0.07470
N1465       N  0.12794459  0.83525291  0.72195772    -0.26220
H1466       H  0.19932331  0.85984559  0.72876967     0.06360
N1467       N  0.12268771  0.94338471  0.67607867    -0.47440
H1468       H  0.18742180  0.87461557  0.62300885     0.06350
C1469       C  0.12405322  0.79028072  0.66221386     0.42050
C1470       C  0.13225218  0.92872386  0.62223673    -0.06970
Co1471     Co  0.13601670  0.85883650  0.63972867     0.73820
N1472       N  0.19639197  0.86097970  0.67723182    -0.47160
C1473       C  0.04623544  0.87925253  0.69961241     0.42310
N1474       N  0.09409382  0.84131332  0.61381620    -0.47150
Co1475     Co  0.15192010  0.84530349  0.69750577     0.73890
C1476       C  0.12605122  0.81520789  0.73339642    -0.07480
C1477       C  0.13129136  0.93452442  0.71280680    -0.07040
N1478       N  0.08736828  0.87274339  0.63481171    -0.26570
N1479       N  0.15967356  0.89737048  0.74623323    -0.47330
H1480       H  0.06358329  0.87222065  0.73409502     0.06320
C1481       C  0.12201365  0.80832605  0.64516980    -0.07450
Cl1482     Cl  0.12584727  0.87212784  0.67830058    -0.50460
C1483       C  0.20464776  0.86962728  0.65758809     0.42070
H1484       H  0.05096423  0.87668229  0.62624979     0.06290
N1485       N  0.13423378  0.79971451  0.68064146    -0.47170
C1486       C  0.20856472  0.66083538  0.87180136     0.41920
N1487       N  0.17382746  0.65765562  0.86147102     0.00810
C1488       C  0.09822949  0.74781263  0.84734616    -0.07060
H1489       H  0.14729755  0.75388585  0.91944019     0.06310
C1490       C  0.12029381  0.66842248  0.94303271    -0.07410
Co1491     Co  0.15389799  0.70269884  0.84863867     0.74180
N1492       N  0.14724159  0.72900269  0.89153782    -0.26590
Co1493     Co  0.11432326  0.71397195  0.88835778     0.74070
C1494       C  0.12741133  0.69025095  0.95330551     0.42030
N1495       N  0.13288628  0.62801876  0.90338744     0.00430
N1496       N  0.11832151  0.69671150  0.91888162     0.00540
N1497       N  0.12574724  0.73799542  0.82167495    -0.47440
H1498       H  0.20943910  0.69989920  0.86295838     0.06290
N1499       N  0.16278360  0.72377064  0.87596998     0.00820
N1500       N  0.08295653  0.69818402  0.88448281     0.00560
C1501       C  0.04752165  0.69338696  0.87763345     0.42170
N1502       N  0.14698994  0.62485695  0.88620191    -0.26050
C1503       C  0.14014117  0.68726217  0.80084237    -0.06970
N1504       N  0.19090158  0.64623156  0.87068619    -0.47150
N1505       N  0.06401803  0.70958900  0.87922741    -0.47380
C1506       C  0.13171079  0.66583714  0.79093618     0.41940
N1507       N  0.12745308  0.72553268  0.84062647     0.00810
N1508       N  0.11130700  0.62728106  0.85128724    -0.26070
N1509       N  0.17868229  0.67965430  0.85781196    -0.26560
N1510       N  0.09516629  0.63025579  0.86679874     0.00450
H1511       H  0.11355857  0.60747650  0.81999774     0.06340
H1512       H  0.04943881  0.65394351  0.88379628     0.06370
N1513       N  0.11165772  0.73065329  0.85603247    -0.26610
N1514       N  0.11507373  0.67400992  0.92159184    -0.26220
N1515       N  0.13893792  0.65972549  0.82579094     0.00810
C1516       C  0.17986927  0.74918413  0.89696269     0.42210
C1517       C  0.16322685  0.60948904  0.89184828    -0.07470
N1518       N  0.07953304  0.67551227  0.88704863    -0.26220
H1519       H  0.11913925  0.65124776  0.95052227     0.06360
N1520       N  0.18227160  0.73550573  0.87837045    -0.47440
H1521       H  0.17637422  0.60440655  0.88006420     0.06350
C1522       C  0.08006213  0.60756931  0.84093080     0.42050
C1523       C  0.20044691  0.68343593  0.86391114    -0.06970
Co1524     Co  0.14315505  0.64235952  0.85563702     0.73820
N1525       N  0.13934499  0.61520992  0.92159553    -0.47160
C1526       C  0.10770464  0.75254807  0.82427685     0.42310
N1527       N  0.13120989  0.64963483  0.80727550    -0.47150
Co1528     Co  0.10480886  0.65174031  0.89565651     0.73890
C1529       C  0.05755120  0.67087618  0.88273435    -0.07480
C1530       C  0.15628710  0.74530030  0.90557735    -0.07040
N1531       N  0.14408167  0.68176684  0.82258493    -0.26570
N1532       N  0.12537967  0.70710851  0.93768136    -0.47330
H1533       H  0.08426920  0.75641920  0.85627066     0.06320
C1534       C  0.10365726  0.61326187  0.83463815    -0.07450
Cl1535     Cl  0.12887272  0.67773346  0.87215324    -0.50460
C1536       C  0.15888616  0.60280368  0.91558429     0.42070
H1537       H  0.14300130  0.70404912  0.79296564     0.06290
N1538       N  0.07581835  0.61869036  0.86128045    -0.47170
C1539       C  0.33461769  0.86450130  0.79036238     0.41920
N1540       N  0.33964137  0.85730407  0.82545256     0.00810
C1541       C  0.25250395  0.84498580  0.90378166    -0.07060
H1542       H  0.24438361  0.91645351  0.85299199     0.06310
C1543       C  0.32934707  0.94222360  0.88234289    -0.07410
Co1544     Co  0.29583085  0.84477416  0.84751492     0.74180
N1545       N  0.26956963  0.88851836  0.85359556    -0.26590
Co1546     Co  0.28509892  0.88595890  0.88637006     0.74070
C1547       C  0.30725416  0.95287623  0.87750190     0.42030
N1548       N  0.36882316  0.90202155  0.86607722     0.00430
N1549       N  0.30166502  0.91709694  0.88255469     0.00540
N1550       N  0.26168343  0.81807944  0.87706109    -0.47440
H1551       H  0.29622670  0.85474554  0.79165252     0.06290
N1552       N  0.27461230  0.87223720  0.83855307     0.00820
N1553       N  0.30119175  0.88201520  0.91746059     0.00560
C1554       C  0.30663232  0.87096861  0.95153501     0.42170
N1555       N  0.37215976  0.88514558  0.85124078    -0.26050
C1556       C  0.31199941  0.79663098  0.86226131    -0.06970
N1557       N  0.35036659  0.86442729  0.80706087    -0.47150
N1558       N  0.29028756  0.87437382  0.93574228    -0.47380
C1559       C  0.33344798  0.78692839  0.87074429     0.41940
N1560       N  0.27394793  0.83729275  0.87447783     0.00810
N1561       N  0.37209761  0.84955811  0.88737808    -0.26070
N1562       N  0.31762691  0.85309684  0.82178444    -0.26560
N1563       N  0.36885390  0.86499106  0.90360260     0.00450
H1564       H  0.39235658  0.81828022  0.88477308     0.06340
H1565       H  0.34567722  0.87803447  0.94979191     0.06370
N1566       N  0.26907772  0.85335728  0.88973827    -0.26610
N1567       N  0.32418319  0.91997096  0.88560285    -0.26220
N1568       N  0.33903440  0.82241433  0.86188750     0.00810
C1569       C  0.24853709  0.89236392  0.82141236     0.42210
C1570       C  0.38658372  0.89247626  0.83468102    -0.07470
N1571       N  0.32375987  0.88445509  0.92067553    -0.26220
H1572       H  0.34625267  0.95003746  0.88417813     0.06360
N1573       N  0.26260133  0.87384339  0.81938703    -0.47440
H1574       H  0.39251536  0.88216674  0.82034685     0.06350
C1575       C  0.39165347  0.83878244  0.91856204     0.42050
C1576       C  0.31283392  0.85691367  0.79983806    -0.06970
Co1577     Co  0.35589706  0.85312619  0.85600537     0.73820
N1578       N  0.38039439  0.92137230  0.86016073    -0.47160
C1579       C  0.24773189  0.82136331  0.89524447     0.42310
N1580       N  0.34911375  0.80412241  0.87064232    -0.47150
Co1581     Co  0.34664302  0.89369641  0.89476565     0.73890
C1582       C  0.32871013  0.87814764  0.94207665    -0.07480
C1583       C  0.25296460  0.90220742  0.84439167    -0.07040
N1584       N  0.31712044  0.81866463  0.85733913    -0.26570
N1585       N  0.29079761  0.93659507  0.87789247    -0.47330
H1586       H  0.24438755  0.85446347  0.91760668     0.06320
C1587       C  0.38642138  0.83290165  0.89482922    -0.07450
Cl1588     Cl  0.32087286  0.86955158  0.87122455    -0.50460
C1589       C  0.39204952  0.91663140  0.84024329     0.42070
H1590       H  0.29531810  0.78840830  0.86022809     0.06290
N1591       N  0.38033272  0.85931348  0.92276073    -0.47170
C1592       C  0.16358717  0.63192310  0.29110754     0.41920
N1593       N  0.15849522  0.64173414  0.32602415     0.00810
C1594       C  0.24780011  0.65331425  0.40345684    -0.07060
H1595       H  0.25562036  0.58291047  0.35231629     0.06310
C1596       C  0.16992305  0.55657864  0.37831149    -0.07410
Co1597     Co  0.20295646  0.65368189  0.34826685     0.74180
N1598       N  0.22987959  0.61033504  0.35330300    -0.26590
Co1599     Co  0.21458403  0.61222171  0.38624731     0.74070
C1600       C  0.19151235  0.54704701  0.37000720     0.42030
N1601       N  0.13037498  0.59648650  0.36708149     0.00430
N1602       N  0.19781769  0.58127643  0.38139606     0.00540
N1603       N  0.23778086  0.68028179  0.37717931    -0.47440
H1604       H  0.20257609  0.64020844  0.29366768     0.06290
N1605       N  0.22441574  0.62660324  0.33843270     0.00820
N1606       N  0.19891524  0.61500155  0.41779634     0.00560
C1607       C  0.19405867  0.62304419  0.45272453     0.42170
N1608       N  0.12683244  0.61353797  0.35252708    -0.26050
C1609       C  0.18722450  0.70085918  0.36613680    -0.06970
N1610       N  0.14785601  0.63371796  0.30789941    -0.47150
N1611       N  0.21014616  0.62133153  0.43637842    -0.47380
C1612       C  0.16541260  0.71166996  0.37202640     0.41940
N1613       N  0.22541776  0.66107027  0.37491159     0.00810
N1614       N  0.12765093  0.64865740  0.38884812    -0.26070
N1615       N  0.18060511  0.64528821  0.32244012    -0.26560
N1616       N  0.13103475  0.63316054  0.40502036     0.00450
H1617       H  0.10757187  0.67986840  0.38629117     0.06340
H1618       H  0.15484766  0.61706414  0.45102632     0.06370
N1619       N  0.23070927  0.64493290  0.38996980    -0.26610
N1620       N  0.17536708  0.57811705  0.38478044    -0.26220
N1621       N  0.15938687  0.67644233  0.36224261     0.00810
C1622       C  0.25056581  0.60685194  0.32084975     0.42210
C1623       C  0.11230034  0.60641274  0.33608958    -0.07470
N1624       N  0.17636853  0.61244462  0.42123189    -0.26220
H1625       H  0.15292573  0.54878746  0.37883642     0.06360
N1626       N  0.23635652  0.62531607  0.31914370    -0.47440
H1627       H  0.10637302  0.61693687  0.32192413     0.06350
C1628       C  0.10806826  0.65936687  0.42012038     0.42050
C1629       C  0.18548470  0.63976573  0.30083533    -0.06970
Co1630     Co  0.14292254  0.64553627  0.35697379     0.73820
N1631       N  0.11888564  0.57715063  0.36097586    -0.47160
C1632       C  0.25208675  0.67714033  0.39506629     0.42310
N1633       N  0.14914510  0.69513855  0.37005557    -0.47150
Co1634     Co  0.15303614  0.60421016  0.39542346     0.73890
C1635       C  0.17172842  0.61724263  0.44308202    -0.07480
C1636       C  0.24666156  0.59700081  0.34387243    -0.07040
N1637       N  0.18168175  0.67948377  0.35934523    -0.26570
N1638       N  0.20816953  0.56283836  0.37293704    -0.47330
H1639       H  0.25664640  0.64373977  0.41674948     0.06320
C1640       C  0.11348321  0.66531524  0.39642920    -0.07450
Cl1641     Cl  0.17839715  0.62881425  0.37184601    -0.50460
C1642       C  0.10703665  0.58211945  0.34125339     0.42070
H1643       H  0.20433101  0.70834164  0.36591439     0.06290
N1644       N  0.11958687  0.63885848  0.42427440    -0.47170
C1645       C  0.34517230  0.57897855  0.10629347     0.41920
N1646       N  0.35859150  0.60848701  0.12545959     0.00810
C1647       C  0.43483161  0.62347151  0.21466606    -0.07060
H1648       H  0.36545429  0.56278011  0.22971876     0.06310
C1649       C  0.31446274  0.62849727  0.23097478    -0.07410
Co1650     Co  0.39841589  0.60093569  0.15702459     0.74180
N1651       N  0.37970184  0.58251049  0.20173191    -0.26590
Co1652     Co  0.38325397  0.61490330  0.21584672     0.74070
C1653       C  0.31802583  0.61024932  0.24806513     0.42030
N1654       N  0.32329602  0.64450620  0.17258989     0.00430
N1655       N  0.34891039  0.61429902  0.22770085     0.00540
N1656       N  0.44423279  0.61482981  0.17793610    -0.47440
H1657       H  0.37290081  0.55495490  0.12276797     0.06290
N1658       N  0.38484296  0.57728409  0.18021392     0.00820
N1659       N  0.38560203  0.64915202  0.22889986     0.00560
C1660       C  0.38939549  0.67952001  0.25045056     0.42170
N1661       N  0.32976001  0.63976447  0.15151344    -0.26050
C1662       C  0.43187258  0.63292381  0.12373514    -0.06970
N1663       N  0.34271607  0.60192850  0.11039822    -0.47150
N1664       N  0.39645030  0.65713256  0.24744762    -0.47380
C1665       C  0.42747128  0.65444771  0.11008973     0.41940
N1666       N  0.42217875  0.61091753  0.18193663     0.00810
N1667       N  0.36691791  0.67303277  0.15351572    -0.26070
N1668       N  0.37225590  0.59159012  0.13214892    -0.26560
N1669       N  0.35958137  0.67875627  0.17404664     0.00450
H1670       H  0.38179214  0.69243801  0.12595100     0.06340
H1671       H  0.36122466  0.69908359  0.23066530     0.06370
N1672       N  0.41632857  0.61604726  0.20332089    -0.26610
N1673       N  0.33452645  0.62991052  0.21949891    -0.26220
N1674       N  0.39625961  0.64294378  0.12727361     0.00810
C1675       C  0.37115359  0.54632801  0.19449883     0.42210
C1676       C  0.31152797  0.63362781  0.13959162    -0.07470
N1677       N  0.37108845  0.66452228  0.22049209    -0.26220
H1678       H  0.30003254  0.64028434  0.22911753     0.06360
N1679       N  0.38014385  0.55547376  0.17529459    -0.47440
H1680       H  0.31141751  0.63121364  0.12132421     0.06350
C1681       C  0.37025830  0.71019319  0.15854263     0.42050
C1682       C  0.36526555  0.57201088  0.12086126    -0.06970
Co1683     Co  0.36258104  0.64147685  0.13924938     0.73820
N1684       N  0.30082748  0.64244124  0.17555529    -0.47160
C1685       C  0.45301152  0.62251613  0.19785589     0.42310
N1686       N  0.40489260  0.65894888  0.11329865    -0.47150
Co1687     Co  0.34659219  0.65489059  0.19646829     0.73890
C1688       C  0.37252859  0.68423028  0.23254994    -0.07480
C1689       C  0.37099630  0.56385862  0.21206594    -0.07040
N1690       N  0.41136515  0.62731425  0.13391971    -0.26570
N1691       N  0.33997348  0.60246616  0.24520614    -0.47330
H1692       H  0.43508544  0.62971137  0.23212653     0.06320
C1693       C  0.37579623  0.69150410  0.14340262    -0.07450
Cl1694     Cl  0.37280093  0.62793972  0.17720649    -0.50460
C1695       C  0.29261468  0.63480702  0.15537707     0.42070
H1696       H  0.44791228  0.62354501  0.12585670     0.06290
N1697       N  0.36124969  0.70119609  0.17783072    -0.47170
C1698       C  0.42227283  0.89142934  0.34366250     0.41920
N1699       N  0.39188395  0.87431914  0.35766238     0.00810
C1700       C  0.37694548  0.78551632  0.43578942    -0.07060
H1701       H  0.43626157  0.76881122  0.36585904     0.06310
C1702       C  0.36844856  0.76679682  0.31774066    -0.07410
Co1703     Co  0.39906499  0.84313599  0.39822094     0.74180
N1704       N  0.41731726  0.79732016  0.38070523    -0.26590
Co1705     Co  0.38494801  0.78339439  0.38472167     0.74070
C1706       C  0.38715685  0.74997020  0.32033174     0.42030
N1707       N  0.35367111  0.82616745  0.32553269     0.00430
N1708       N  0.38470561  0.77115595  0.35076242     0.00540
N1709       N  0.38597718  0.82298869  0.44424279    -0.47440
H1710       H  0.44529599  0.87458429  0.37157028     0.06290
N1711       N  0.42274599  0.81918515  0.38559212     0.00820
N1712       N  0.35109807  0.77011997  0.38821458     0.00560
C1713       C  0.32075484  0.74917409  0.39426410     0.42170
N1714       N  0.35933409  0.84778527  0.33050054    -0.26050
C1715       C  0.36720540  0.87734891  0.43077596    -0.06970
N1716       N  0.39920626  0.88869591  0.34131689    -0.47150
N1717       N  0.34332302  0.75193577  0.40015696    -0.47380
C1718       C  0.34667270  0.89226779  0.42600291     0.41940
N1719       N  0.38915426  0.81855638  0.42238180     0.00810
N1720       N  0.32626257  0.84753335  0.36763162    -0.26070
N1721       N  0.40843100  0.86722726  0.37141296    -0.26560
N1722       N  0.32099388  0.82577050  0.36309351     0.00450
H1723       H  0.30713312  0.87579408  0.38186620     0.06340
H1724       H  0.30022232  0.76893441  0.36689857     0.06370
N1725       N  0.38406987  0.79668367  0.41714440    -0.26610
N1726       N  0.36827320  0.77899295  0.33727720    -0.26220
N1727       N  0.35782606  0.87438536  0.39529288     0.00810
C1728       C  0.45314817  0.80442790  0.37159559     0.42210
C1729       C  0.36641206  0.85843175  0.31172531    -0.07470
N1730       N  0.33527845  0.77864849  0.37447072    -0.26220
H1731       H  0.35578909  0.76817735  0.30420473     0.06360
N1732       N  0.44432323  0.82413690  0.38032585    -0.47440
H1733       H  0.37127806  0.87651083  0.31014190     0.06350
C1734       C  0.28981736  0.84008322  0.37685749     0.42050
C1735       C  0.42845181  0.87719882  0.36401783    -0.06970
Co1736     Co  0.35841328  0.86137872  0.36235388     0.73820
N1737       N  0.35591707  0.82140828  0.30366657    -0.47160
C1738       C  0.37785418  0.80308437  0.45324649     0.42310
N1739       N  0.34243293  0.88926447  0.40355497    -0.47150
Co1740     Co  0.34403636  0.80265286  0.34964395     0.73890
C1741       C  0.31557557  0.76685837  0.37720537    -0.07480
C1742       C  0.43562037  0.78661397  0.37183070    -0.07040
N1743       N  0.37291101  0.86707325  0.41047261    -0.26570
N1744       N  0.39612854  0.75333616  0.34155564    -0.47330
H1745       H  0.37145439  0.76754991  0.43674271     0.06320
C1746       C  0.30795779  0.85773053  0.37690910    -0.07450
Cl1747     Cl  0.37174557  0.82258993  0.37379962    -0.50460
C1748       C  0.36418135  0.84097730  0.29434163     0.42070
H1749       H  0.37624689  0.87494387  0.44678861     0.06290
N1750       N  0.29956185  0.82064722  0.36845270    -0.47170
C1751       C  0.12694830  0.66626809  0.21062858     0.41920
N1752       N  0.13786752  0.66002732  0.17629387     0.00810
C1753       C  0.15489958  0.74812704  0.09803364    -0.07060
H1754       H  0.08347013  0.75753446  0.14445443     0.06310
C1755       C  0.05742111  0.67052328  0.11965788    -0.07410
Co1756     Co  0.15261760  0.70399368  0.15392930     0.74180
N1757       N  0.11015017  0.73115902  0.14605338    -0.26590
Co1758     Co  0.11363427  0.71500157  0.11385593     0.74070
C1759       C  0.04751658  0.69263121  0.12632711     0.42030
N1760       N  0.09590511  0.63055535  0.13377276     0.00430
N1761       N  0.08233214  0.69845428  0.11731880     0.00540
N1762       N  0.18065335  0.73880531  0.12557771    -0.47440
H1763       H  0.13628920  0.70501225  0.20833652     0.06290
N1764       N  0.12580301  0.72643229  0.16164118     0.00820
N1765       N  0.11789511  0.69834926  0.08300006     0.00560
C1766       C  0.12453501  0.69255707  0.04799968     0.42170
N1767       N  0.11171869  0.62716507  0.14949379    -0.26050
C1768       C  0.19943356  0.68675361  0.13732584    -0.06970
N1769       N  0.12855387  0.65003979  0.19424159    -0.47150
N1770       N  0.12324856  0.70925123  0.06389074    -0.47380
C1771       C  0.20828098  0.66504361  0.12787637     0.41940
N1772       N  0.16176397  0.72588690  0.12706593     0.00810
N1773       N  0.14857639  0.62641032  0.11487286    -0.26070
N1774       N  0.14185525  0.68232531  0.17953358    -0.26560
N1775       N  0.13430493  0.63042466  0.09787199     0.00450
H1776       H  0.17927382  0.60539010  0.11837220     0.06340
H1777       H  0.11777113  0.65329551  0.05070989     0.06370
N1778       N  0.14634064  0.73089427  0.11130809    -0.26610
N1779       N  0.07921597  0.67573991  0.11439963    -0.26220
N1780       N  0.17475356  0.65907922  0.14194240     0.00810
C1781       C  0.10609807  0.75411787  0.17687192     0.42210
C1782       C  0.10340279  0.61297137  0.16579041    -0.07470
N1783       N  0.11514863  0.67559280  0.08014906    -0.26220
H1784       H  0.04970896  0.65338341  0.11935291     0.06360
N1785       N  0.12436786  0.73994572  0.17990357    -0.47440
H1786       H  0.11273134  0.60701096  0.18070619     0.06350
C1787       C  0.16054651  0.60715513  0.08382053     0.42050
C1788       C  0.13517376  0.68793942  0.20064305    -0.06970
Co1789     Co  0.14366340  0.64295007  0.14620935     0.73820
N1790       N  0.07628869  0.61921020  0.13867261    -0.47160
C1791       C  0.17791836  0.75319143  0.10754836     0.42310
N1792       N  0.19215715  0.64878733  0.13182526    -0.47150
Co1793     Co  0.10548843  0.65276283  0.10576085     0.73890
C1794       C  0.11922342  0.67036001  0.05839806    -0.07480
C1795       C  0.09672884  0.74859479  0.15405820    -0.07040
N1796       N  0.17839420  0.68146055  0.14502975    -0.26570
N1797       N  0.06361926  0.70920383  0.12445785    -0.47330
H1798       H  0.14571877  0.75685906  0.08440622     0.06320
C1799       C  0.16517932  0.61169050  0.10794271    -0.07450
Cl1800     Cl  0.12872699  0.67877824  0.12968950    -0.50460
C1801       C  0.07978785  0.60785075  0.15894069     0.42070
H1802       H  0.20655371  0.70404225  0.13697592     0.06290
N1803       N  0.14081823  0.61928034  0.07873000    -0.47170
C1804       C  0.21092281  0.86889714  0.33252785     0.41920
N1805       N  0.17592287  0.85985345  0.33912539     0.00810
C1806       C  0.09584316  0.84656833  0.25305619    -0.07060
H1807       H  0.14546331  0.91773366  0.24490874     0.06310
C1808       C  0.12021163  0.94305297  0.33070108    -0.07410
Co1809     Co  0.15194854  0.84654389  0.29638618     0.74180
N1810       N  0.14526979  0.88984439  0.27003025    -0.26590
Co1811     Co  0.11258167  0.88680521  0.28675781     0.74070
C1812       C  0.12636948  0.95288380  0.30873352     0.42030
N1813       N  0.13504123  0.90381190  0.36997068     0.00430
N1814       N  0.11678619  0.91798589  0.30331978     0.00540
N1815       N  0.12340228  0.82020642  0.26138728    -0.47440
H1816       H  0.20819232  0.85821338  0.29477058     0.06290
N1817       N  0.16061070  0.87365819  0.27472763     0.00820
N1818       N  0.08183275  0.88215794  0.30431955     0.00560
C1819       C  0.04816751  0.86944488  0.31155682     0.42170
N1820       N  0.15065313  0.88740113  0.37224952    -0.26050
C1821       C  0.13309754  0.80017208  0.31300919    -0.06970
N1822       N  0.19460636  0.86812017  0.34874311    -0.47150
N1823       N  0.06333030  0.87319816  0.29460323    -0.47380
C1824       C  0.12615305  0.79011780  0.33481280     0.41940
N1825       N  0.12462389  0.83847728  0.27508523     0.00810
N1826       N  0.11488895  0.85125458  0.37379927    -0.26070
N1827       N  0.17878470  0.85540879  0.31724163    -0.26560
N1828       N  0.09827526  0.86654037  0.37159928     0.00450
H1829       H  0.11907326  0.81994490  0.39300439     0.06340
H1830       H  0.05138223  0.87773186  0.34995084     0.06370
N1831       N  0.10900618  0.85434407  0.27056815    -0.26610
N1832       N  0.11445668  0.92116383  0.32574958    -0.26220
N1833       N  0.13971686  0.82425969  0.34040282     0.00810
C1834       C  0.17757953  0.89391501  0.24860221     0.42210
C1835       C  0.16761818  0.89493929  0.38603063    -0.07470
N1836       N  0.07936999  0.88496281  0.32679484    -0.26220
H1837       H  0.12051563  0.95083514  0.34755354     0.06360
N1838       N  0.17973875  0.87530364  0.26243507    -0.47440
H1839       H  0.18246613  0.88485940  0.39127290     0.06350
C1840       C  0.08552644  0.84124602  0.39671287     0.42050
C1841       C  0.20058391  0.86021373  0.31154767    -0.06970
Co1842     Co  0.14581440  0.85527306  0.35647376     0.73820
N1843       N  0.14057270  0.92292823  0.38196745    -0.47160
C1844       C  0.10539235  0.82356706  0.24718498     0.42310
N1845       N  0.13036416  0.80635231  0.35077229    -0.47150
Co1846     Co  0.10589353  0.89500321  0.34881296     0.73890
C1847       C  0.05829295  0.87781260  0.33275955    -0.07480
C1848       C  0.15428334  0.90351691  0.25329140    -0.07040
N1849       N  0.14171916  0.82098298  0.31821696    -0.26570
N1850       N  0.12383891  0.93674061  0.29251597    -0.47330
H1851       H  0.08284705  0.85659165  0.24416361     0.06320
C1852       C  0.10855108  0.83475917  0.38869791    -0.07450
Cl1853     Cl  0.12889866  0.87125893  0.32204360    -0.50460
C1854       C  0.16121291  0.91859209  0.39262401     0.42070
H1855       H  0.13206910  0.79267573  0.29607703     0.06290
N1856       N  0.08016326  0.86127119  0.38500024    -0.47170
C1857       C  0.39244270  0.92464934  0.15277423     0.41920
N1858       N  0.37411727  0.89445752  0.13970875     0.00810
C1859       C  0.28465884  0.87769637  0.06365136    -0.07060
H1860       H  0.27007097  0.93945818  0.13380785     0.06310
C1861       C  0.26775624  0.87668742  0.18354152    -0.07410
Co1862     Co  0.34245276  0.90096388  0.09976004     0.74180
N1863       N  0.29724883  0.92065023  0.11702724    -0.26590
Co1864     Co  0.28265292  0.88835821  0.11461275     0.74070
C1865       C  0.25001163  0.89432679  0.17989019     0.42030
N1866       N  0.32617107  0.85981261  0.17512835     0.00430
N1867       N  0.27034521  0.89013419  0.14896883     0.00540
N1868       N  0.32210454  0.88519943  0.05476382    -0.47440
H1869       H  0.37504705  0.94809947  0.12537011     0.06290
N1870       N  0.31897359  0.92571864  0.11171775     0.00820
N1871       N  0.26908349  0.85431486  0.11318817     0.00560
C1872       C  0.24901532  0.82303159  0.10835624     0.42170
N1873       N  0.34756866  0.86443352  0.16901748    -0.26050
C1874       C  0.37674718  0.86710503  0.06842041    -0.06970
N1875       N  0.38913580  0.90157368  0.15538859    -0.47150
N1876       N  0.25166888  0.84538155  0.10106225    -0.47380
C1877       C  0.39113713  0.84611777  0.07405248     0.41940
N1878       N  0.31765816  0.89010712  0.07634522     0.00810
N1879       N  0.34462086  0.82960152  0.13345475    -0.26070
N1880       N  0.36696216  0.91108153  0.12598065    -0.26560
N1881       N  0.32308272  0.82544217  0.13940584     0.00450
H1882       H  0.37094031  0.80795491  0.11871031     0.06340
H1883       H  0.26769674  0.80460350  0.13788812     0.06370
N1884       N  0.29584167  0.88569361  0.08194202    -0.26610
N1885       N  0.27905620  0.87512373  0.16359622    -0.26220
N1886       N  0.37240905  0.85864278  0.10394188     0.00810
C1887       C  0.30518153  0.95634263  0.12670788     0.42210
C1888       C  0.35956236  0.87093037  0.18715082    -0.07470
N1889       N  0.27704395  0.83958027  0.12843586    -0.26220
H1890       H  0.26995135  0.86505564  0.19793204     0.06360
N1891       N  0.32445623  0.94721226  0.11747821    -0.47440
H1892       H  0.37772988  0.87513464  0.18754190     0.06350
C1893       C  0.33495922  0.79345631  0.12625333     0.42050
C1894       C  0.37745094  0.93113704  0.13301187    -0.06970
Co1895     Co  0.35994271  0.86135883  0.13689369     0.73820
N1896       N  0.32305998  0.86166565  0.19731242    -0.47160
C1897       C  0.30212759  0.87730087  0.04607054     0.42310
N1898       N  0.38722811  0.84272751  0.09655272    -0.47150
Co1899     Co  0.30161105  0.84966647  0.15221667     0.73890
C1900       C  0.26555735  0.81947535  0.12674504    -0.07480
C1901       C  0.28726112  0.93901079  0.12659210    -0.07040
N1902       N  0.36589123  0.87360027  0.08824396    -0.26570
N1903       N  0.25244568  0.90171876  0.15783634    -0.47330
H1904       H  0.26682745  0.87210757  0.06308266     0.06320
C1905       C  0.35333277  0.81041003  0.12434481    -0.07450
Cl1906     Cl  0.32160380  0.87526993  0.12580657    -0.50460
C1907       C  0.34361699  0.86835362  0.20568522     0.42070
H1908       H  0.37525142  0.87610740  0.05224321     0.06290
N1909       N  0.31658728  0.80400319  0.13529461    -0.47170
C1910       C  0.89231209  0.58009072  0.34085782     0.41920
N1911       N  0.87349500  0.61008023  0.35313854     0.00810
C1912       C  0.78884239  0.62270796  0.43557782    -0.07060
H1913       H  0.77007534  0.56420108  0.36261192     0.06310
C1914       C  0.76533656  0.62891810  0.31586090    -0.07410
Co1915     Co  0.84378431  0.60221365  0.39423956     0.74180
N1916       N  0.79801901  0.58283943  0.37850646    -0.26590
Co1917     Co  0.78355218  0.61505808  0.38352894     0.74070
C1918       C  0.74880100  0.61011318  0.31951878     0.42030
N1919       N  0.82327515  0.64555699  0.32148641     0.00430
N1920       N  0.76959986  0.61469785  0.34992278     0.00540
N1921       N  0.82660404  0.61448896  0.44063004    -0.47440
H1922       H  0.87722315  0.55723461  0.36987397     0.06290
N1923       N  0.82006867  0.57785511  0.38213568     0.00820
N1924       N  0.77017296  0.64906412  0.38710102     0.00560
C1925       C  0.74970825  0.67973408  0.39380715     0.42170
N1926       N  0.84509824  0.64112300  0.32590267    -0.26050
C1927       C  0.87840471  0.63458787  0.42527328    -0.06970
N1928       N  0.88844699  0.60296228  0.33734530    -0.47150
N1929       N  0.75302179  0.65717288  0.40013244    -0.47380
C1930       C  0.89256340  0.65559438  0.42040355     0.41940
N1931       N  0.82043260  0.61127716  0.41929882     0.00810
N1932       N  0.84513926  0.67520866  0.36261609    -0.26070
N1933       N  0.86725240  0.59352709  0.36740690    -0.26560
N1934       N  0.82313990  0.67960028  0.35917883     0.00450
H1935       H  0.87238603  0.69448312  0.37835132     0.06340
H1936       H  0.76683572  0.69950249  0.36409055     0.06370
N1937       N  0.79837067  0.61609767  0.41573581    -0.26610
N1938       N  0.77715995  0.63055530  0.33549531    -0.26220
N1939       N  0.87371801  0.64468256  0.39015443     0.00810
C1940       C  0.80610189  0.54805349  0.36546990     0.42210
C1941       C  0.85477017  0.63184124  0.30757273    -0.07470
N1942       N  0.77735067  0.66455879  0.37212277    -0.26220
H1943       H  0.76684274  0.64066623  0.30148720     0.06360
N1944       N  0.82549708  0.55687107  0.37477110    -0.47440
H1945       H  0.87259565  0.62667830  0.30628871     0.06350
C1946       C  0.83570406  0.70944779  0.37721636     0.42050
C1947       C  0.87845620  0.57380457  0.36120403    -0.06970
Co1948     Co  0.85975540  0.64338566  0.35735717     0.73820
N1949       N  0.81747380  0.63974887  0.30043870    -0.47160
C1950       C  0.80780558  0.62158457  0.45193877     0.42310
N1951       N  0.88878496  0.66017819  0.39807552    -0.47150
Co1952     Co  0.80047967  0.65566202  0.34644250     0.73890
C1953       C  0.76555855  0.68432208  0.37496837    -0.07480
C1954       C  0.78779956  0.56484235  0.36837796    -0.07040
N1955       N  0.86730714  0.62914985  0.40544920    -0.26570
N1956       N  0.75224677  0.60221114  0.34121069    -0.47330
H1957       H  0.77115130  0.62824425  0.43787966     0.06320
C1958       C  0.85450206  0.69313155  0.37348997    -0.07450
Cl1959     Cl  0.82185384  0.62897886  0.37048835    -0.50460
C1960       C  0.83644959  0.63046684  0.29076321     0.42070
H1961       H  0.87741825  0.62481363  0.44092317     0.06290
N1962       N  0.81680681  0.69976565  0.36775941    -0.47170
C1963       C  0.63619264  0.83220122  0.29086134     0.41920
N1964       N  0.64382226  0.83879903  0.32538144     0.00810
C1965       C  0.65264861  0.75156253  0.40507114    -0.07060
H1966       H  0.58418091  0.74345348  0.35254529     0.06310
C1967       C  0.55833978  0.83119577  0.37457154    -0.07410
Co1968     Co  0.65539822  0.79527479  0.34924501     0.74180
N1969       N  0.61163212  0.76915773  0.35353022    -0.26590
Co1970     Co  0.61274910  0.78572748  0.38592863     0.74070
C1971       C  0.54873550  0.80931226  0.36651929     0.42030
N1972       N  0.59852800  0.87010383  0.36339938     0.00430
N1973       N  0.58229348  0.80290811  0.37957349     0.00540
N1974       N  0.68023200  0.76094845  0.37936710    -0.47440
H1975       H  0.64586628  0.79366399  0.29350146     0.06290
N1976       N  0.62873960  0.77352186  0.33933572     0.00820
N1977       N  0.61521991  0.80302696  0.41659568     0.00560
C1978       C  0.62139034  0.80947546  0.45161805     0.42170
N1979       N  0.61553689  0.87282275  0.34872328    -0.26050
C1980       C  0.70127491  0.81151752  0.36886006    -0.06970
N1981       N  0.63628778  0.84877535  0.30678299    -0.47150
N1982       N  0.61997770  0.79250386  0.43601376    -0.47380
C1983       C  0.71163038  0.83368745  0.37517268     0.41940
N1984       N  0.66152037  0.77373805  0.37663775     0.00810
N1985       N  0.64984420  0.87317650  0.38559239    -0.26070
N1986       N  0.64819133  0.81654196  0.32263035    -0.26560
N1987       N  0.63416259  0.87123416  0.40163350     0.00450
H1988       H  0.68159412  0.89095332  0.38189406     0.06340
H1989       H  0.61573584  0.84886044  0.44774897     0.06370
N1990       N  0.64494812  0.76887699  0.39126214    -0.26610
N1991       N  0.57939795  0.82567818  0.38206304    -0.26220
N1992       N  0.67750671  0.83947934  0.36239871     0.00810
C1993       C  0.60984265  0.74631954  0.32224326     0.42210
C1994       C  0.60857711  0.88715831  0.33180644    -0.07470
N1995       N  0.61294050  0.82589614  0.41888660    -0.26220
H1996       H  0.55097419  0.84846605  0.37424609     0.06360
N1997       N  0.62859859  0.76014122  0.32093499    -0.47440
H1998       H  0.61903025  0.89281795  0.31749578     0.06350
C1999       C  0.66029301  0.89572666  0.41488211     0.42050
C2000       C  0.64410510  0.81077010  0.30100038    -0.06970
Co2001     Co  0.64715761  0.85614516  0.35497977     0.73820
N2002       N  0.57960124  0.88189468  0.35719232    -0.47160
C2003       C  0.67642700  0.74654003  0.39707431     0.42310
N2004       N  0.69541505  0.84990852  0.37151265    -0.47150
Co2005     Co  0.60540538  0.84845609  0.39245324     0.73890
C2006       C  0.61666106  0.83152938  0.44057373    -0.07480
C2007       C  0.59854635  0.75204774  0.34423563    -0.07040
N2008       N  0.68061536  0.81694081  0.36044156    -0.26570
N2009       N  0.56414725  0.79248539  0.37068812    -0.47330
H2010       H  0.64261406  0.74287074  0.41815062     0.06320
C2011       C  0.66662896  0.88752733  0.39218888    -0.07450
Cl2012     Cl  0.63003546  0.82138156  0.37077332    -0.50460
C2013       C  0.58456788  0.89308433  0.33714549     0.42070
H2014       H  0.70884575  0.79434318  0.36928620     0.06290
N2015       N  0.63971015  0.88453586  0.41980228    -0.47170
C2016       C  0.70895359  0.62323403  0.15987348     0.41920
N2017       N  0.67427432  0.63520325  0.15595706     0.00810
C2018       C  0.59963168  0.65381514  0.24641444    -0.07060
H2019       H  0.64528381  0.58175005  0.25619416     0.06310
C2020       C  0.61612882  0.55416030  0.17098168    -0.07410
Co2021     Co  0.65420491  0.64917328  0.20066560     0.74180
N2022       N  0.64601458  0.60722589  0.22873240    -0.26590
Co2023     Co  0.61267892  0.61146384  0.21383715     0.74070
C2024       C  0.62338706  0.54454020  0.19273442     0.42030
N2025       N  0.62941797  0.59253924  0.13012164     0.00430
N2026       N  0.61447572  0.57963898  0.19811255     0.00540
N2027       N  0.62859078  0.67821192  0.23660087    -0.47440
H2028       H  0.70798288  0.63042796  0.19869603     0.06290
N2029       N  0.66215140  0.62195806  0.22227082     0.00820
N2030       N  0.58113588  0.61702483  0.19846431     0.00560
C2031       C  0.54755239  0.63063341  0.19290301     0.42170
N2032       N  0.64471884  0.60886449  0.12578786    -0.26050
C2033       C  0.64249117  0.69796430  0.18454401    -0.06970
N2034       N  0.69192708  0.62662984  0.14469479    -0.47150
N2035       N  0.56356916  0.62686330  0.20904529    -0.47380
C2036       C  0.63477953  0.70808667  0.16323052     0.41940
N2037       N  0.62847775  0.65938408  0.22352401     0.00810
N2038       N  0.61034782  0.64642502  0.12733118    -0.26070
N2039       N  0.67854869  0.63787247  0.17788665    -0.26560
N2040       N  0.59372375  0.63126468  0.13094729     0.00450
H2041       H  0.61268325  0.67810442  0.10751175     0.06340
H2042       H  0.54807571  0.62084362  0.15476180     0.06370
N2043       N  0.61196753  0.64465008  0.22897598    -0.26610
N2044       N  0.61094703  0.57618298  0.17590836    -0.26220
N2045       N  0.64033545  0.67221024  0.15779432     0.00810
C2046       C  0.67880461  0.60277047  0.24931487     0.42210
C2047       C  0.66032528  0.60090996  0.11078111    -0.07470
N2048       N  0.57719060  0.61358224  0.17635971    -0.26220
H2049       H  0.61566588  0.54621624  0.15420748     0.06360
N2050       N  0.68151634  0.62010639  0.23407899    -0.47440
H2051       H  0.67449470  0.61085127  0.10386164     0.06350
C2052       C  0.57861332  0.65772246  0.10874664     0.42050
C2053       C  0.69983431  0.63040859  0.18209883    -0.06970
Co2054     Co  0.64281559  0.64115784  0.14154040     0.73820
N2055       N  0.63422188  0.57285569  0.11867576    -0.47160
C2056       C  0.61068613  0.67632861  0.25133977     0.42310
N2057       N  0.63370973  0.69123868  0.14752315    -0.47150
Co2058     Co  0.60195978  0.60243547  0.15316877     0.73890
C2059       C  0.55605848  0.62118248  0.17146567    -0.07480
C2060       C  0.65478290  0.59436962  0.24617530    -0.07040
N2061       N  0.64542852  0.67559238  0.17947263    -0.26570
N2062       N  0.62201177  0.56100105  0.20879153    -0.47330
H2063       H  0.58609968  0.64497755  0.25578416     0.06320
C2064       C  0.60261973  0.66350393  0.11362354    -0.07450
Cl2065     Cl  0.62784152  0.62592341  0.17732805    -0.50460
C2066       C  0.65378734  0.57697618  0.10602247     0.42070
H2067       H  0.64566781  0.70608875  0.20094043     0.06290
N2068       N  0.57429569  0.63722001  0.11992447    -0.47170
C2069       C  0.65895593  0.86475124  0.20493573     0.41920
N2070       N  0.65568422  0.85726514  0.16983201     0.00810
C2071       C  0.74830862  0.84901151  0.09709288    -0.07060
H2072       H  0.75402590  0.91577384  0.14894613     0.06310
C2073       C  0.66860256  0.94402574  0.12588241    -0.07410
Co2074     Co  0.70058988  0.84522671  0.14931560     0.74180
N2075       N  0.72806611  0.88870165  0.14736886    -0.26590
Co2076     Co  0.71353093  0.88889478  0.11446035     0.74070
C2077       C  0.68973188  0.95253544  0.13648125     0.42030
N2078       N  0.62808970  0.90409281  0.13128684     0.00430
N2079       N  0.69663579  0.91975285  0.12106248     0.00540
N2080       N  0.73718796  0.82057419  0.12132264    -0.47440
H2081       H  0.69763768  0.85543580  0.20510017     0.06290
N2082       N  0.72269704  0.87153411  0.16127424     0.00820
N2083       N  0.69886283  0.88802045  0.08275377     0.00560
C2084       C  0.69546848  0.88319446  0.04722573     0.42170
N2085       N  0.62475075  0.88617191  0.14471984    -0.26050
C2086       C  0.68355337  0.79875098  0.12924623    -0.06970
N2087       N  0.64426036  0.86488645  0.18756590    -0.47150
N2088       N  0.71085195  0.88337174  0.06419978    -0.47380
C2089       C  0.66146911  0.78943362  0.12092090     0.41940
N2090       N  0.72370711  0.83904571  0.12305101     0.00810
N2091       N  0.62647736  0.85388085  0.10674130    -0.26070
N2092       N  0.67748294  0.85289453  0.17432946    -0.26560
N2093       N  0.63052998  0.87007203  0.09141044     0.00450
H2094       H  0.60498454  0.82357854  0.10772422     0.06340
H2095       H  0.65645017  0.89054678  0.04778632     0.06370
N2096       N  0.72973106  0.85615852  0.10931071    -0.26610
N2097       N  0.67434939  0.92336960  0.11713795    -0.26220
N2098       N  0.65693461  0.82439866  0.13231717     0.00810
C2099       C  0.75000611  0.88988077  0.17895882     0.42210
C2100       C  0.60948950  0.89151508  0.16102614    -0.07470
N2101       N  0.67658685  0.89141668  0.07867319    -0.26220
H2102       H  0.65153193  0.95159938  0.12557703     0.06360
N2103       N  0.73536074  0.87150871  0.18022730    -0.47440
H2104       H  0.60433361  0.87970513  0.17435122     0.06350
C2105       C  0.60734926  0.84503708  0.07496502     0.42050
C2106       C  0.68128962  0.85718663  0.19632935    -0.06970
Co2107     Co  0.64096292  0.85496558  0.13881008     0.73820
N2108       N  0.61528714  0.92234173  0.13795437    -0.47160
C2109       C  0.75302647  0.82504473  0.10499776     0.42310
N2110       N  0.64620494  0.80671074  0.12302568    -0.47150
Co2111     Co  0.65224067  0.89826376  0.10367611     0.73890
C2112       C  0.67287330  0.88875054  0.05641852    -0.07480
C2113       C  0.74516115  0.90134522  0.15697173    -0.07040
N2114       N  0.67885477  0.82025652  0.13633319    -0.26570
N2115       N  0.70643470  0.93696322  0.13231667    -0.47330
H2116       H  0.75852112  0.85985403  0.08582744     0.06320
C2117       C  0.61192918  0.83811692  0.09831983    -0.07450
Cl2118     Cl  0.67689410  0.87191995  0.12642272    -0.50460
C2119       C  0.60268069  0.91549154  0.15677694     0.42070
H2120       H  0.70027867  0.79049655  0.13040631     0.06290
N2121       N  0.61942717  0.86543682  0.07168353    -0.47170
C2122       C  0.92196389  0.60808162  0.15646514     0.41920
N2123       N  0.89194447  0.62717862  0.14441969     0.00810
C2124       C  0.87678089  0.71409674  0.06451905    -0.07060
H2125       H  0.93646442  0.73114402  0.13544825     0.06310
C2126       C  0.87286869  0.73436998  0.18354481    -0.07410
Co2127     Co  0.89854017  0.65715785  0.10320255     0.74180
N2128       N  0.91767387  0.70312267  0.11955114    -0.26590
Co2129     Co  0.88561526  0.71765706  0.11553185     0.74070
C2130       C  0.89222756  0.75023382  0.18037919     0.42030
N2131       N  0.85598651  0.67717426  0.17721189     0.00430
N2132       N  0.88654755  0.73092723  0.14924198     0.00540
N2133       N  0.88519869  0.67628883  0.05699893    -0.47440
H2134       H  0.94420977  0.62343713  0.12705385     0.06290
N2135       N  0.92266578  0.68100513  0.11539028     0.00820
N2136       N  0.85181331  0.73126292  0.11265997     0.00560
C2137       C  0.82202836  0.75337348  0.10764443     0.42170
N2138       N  0.86137001  0.65545562  0.17249083    -0.26050
C2139       C  0.86588433  0.62220705  0.07245946    -0.06970
N2140       N  0.89938612  0.61258179  0.16046313    -0.47150
N2141       N  0.84415961  0.74949865  0.10076067    -0.47380
C2142       C  0.84459825  0.60851962  0.07771376     0.41940
N2143       N  0.88858763  0.68130996  0.07871606     0.00810
N2144       N  0.82683765  0.65537655  0.13654292    -0.26070
N2145       N  0.90804906  0.63316065  0.12967810    -0.26560
N2146       N  0.82175312  0.67723916  0.14097879     0.00450
H2147       H  0.80670320  0.62666280  0.12429798     0.06340
H2148       H  0.80244826  0.73554289  0.13701486     0.06370
N2149       N  0.88386302  0.70338553  0.08343674    -0.26610
N2150       N  0.87074510  0.72328774  0.16355778    -0.26220
N2151       N  0.85648463  0.62729001  0.10779009     0.00810
C2152       C  0.95227404  0.69489359  0.13196406     0.42210
C2153       C  0.86948020  0.64549063  0.19122759    -0.07470
N2154       N  0.83644983  0.72379718  0.12754926    -0.26220
H2155       H  0.86139074  0.73250063  0.19804942     0.06360
N2156       N  0.94357489  0.67547028  0.12242416    -0.47440
H2157       H  0.87437720  0.62744442  0.19297615     0.06350
C2158       C  0.79048369  0.66246483  0.12908839     0.42050
C2159       C  0.92776992  0.62189259  0.13572899    -0.06970
Co2160     Co  0.85871817  0.64098877  0.14078714     0.73820
N2161       N  0.85934921  0.68249331  0.19886016    -0.47160
C2162       C  0.87739880  0.69603451  0.04751411     0.42310
N2163       N  0.84028460  0.61293298  0.09999799    -0.47150
Co2164     Co  0.84568048  0.70016612  0.15275313     0.73890
C2165       C  0.81719975  0.73651934  0.12567494    -0.07480
C2166       C  0.93565792  0.71334841  0.12950619    -0.07040
N2167       N  0.87180171  0.63334311  0.09223077    -0.26570
N2168       N  0.89955856  0.74767035  0.15840371    -0.47330
H2169       H  0.87160493  0.73211394  0.06308437     0.06320
C2170       C  0.80824846  0.64493760  0.12838176    -0.07450
Cl2171     Cl  0.87219466  0.67901493  0.12793811    -0.50460
C2172       C  0.86795207  0.66322853  0.20864307     0.42070
H2173       H  0.87496824  0.62370351  0.05634194     0.06290
N2174       N  0.79995672  0.68223622  0.13693078    -0.47170
C2175       C  0.86781636  0.78751689  0.33700325     0.41920
N2176       N  0.85977049  0.82332985  0.34076080     0.00810
C2177       C  0.84447790  0.90200143  0.25321319    -0.07060
H2178       H  0.91742389  0.85441744  0.24508993     0.06310
C2179       C  0.94220106  0.87971028  0.33072780    -0.07410
Co2180     Co  0.84741098  0.84526968  0.29686185     0.74180
N2181       N  0.89020492  0.85318880  0.27055416    -0.26590
Co2182     Co  0.88674129  0.88610941  0.28607705     0.74070
C2183       C  0.95261000  0.87274783  0.30923135     0.42030
N2184       N  0.90242867  0.86586440  0.36945403     0.00430
N2185       N  0.91796952  0.88240880  0.30273810     0.00540
N2186       N  0.81952356  0.87349696  0.26278513    -0.47440
H2187       H  0.86089797  0.78844731  0.29821581     0.06290
N2188       N  0.87486658  0.83712149  0.27569254     0.00820
N2189       N  0.88263729  0.91750727  0.30221772     0.00560
C2190       C  0.87735554  0.95333883  0.30741119     0.42170
N2191       N  0.88593873  0.85050210  0.37273146    -0.26050
C2192       C  0.79984811  0.86139071  0.31201810    -0.06970
N2193       N  0.86673913  0.80501627  0.35197626    -0.47150
N2194       N  0.87810297  0.93693134  0.29122682    -0.47380
C2195       C  0.78901509  0.86868880  0.33320182     0.41940
N2196       N  0.83876210  0.87218198  0.27489650     0.00810
N2197       N  0.84995401  0.88633011  0.37192974    -0.26070
N2198       N  0.85685805  0.81932118  0.31881561    -0.26560
N2199       N  0.86503229  0.90312909  0.36898124     0.00450
H2200       H  0.81895940  0.88261438  0.39149300     0.06340
H2201       H  0.88334709  0.95080031  0.34619619     0.06370
N2202       N  0.85384687  0.88855355  0.26991653    -0.26610
N2203       N  0.92062450  0.88532560  0.32513396    -0.26220
N2204       N  0.82376353  0.85839560  0.33989760     0.00810
C2205       C  0.89505842  0.82122466  0.24906993     0.42210
C2206       C  0.89332801  0.83387145  0.38709891    -0.07470
N2207       N  0.88525689  0.92058531  0.32458212    -0.26220
H2208       H  0.94946329  0.87996267  0.34777140     0.06360
N2209       N  0.87703331  0.81797924  0.26333296    -0.47440
H2210       H  0.88333891  0.81910990  0.39295337     0.06350
C2211       C  0.83880659  0.91752119  0.39215886     0.42050
C2212       C  0.86202412  0.79708054  0.31463101    -0.06970
Co2213     Co  0.85437837  0.85422021  0.35644325     0.73820
N2214       N  0.92160643  0.86029979  0.38106471    -0.47160
C2215       C  0.82120995  0.89208990  0.24890517     0.42310
N2216       N  0.80510829  0.86667270  0.34962218    -0.47150
Co2217     Co  0.89408835  0.89455449  0.34726201     0.73890
C2218       C  0.88184820  0.94286686  0.32946582    -0.07480
C2219       C  0.90388885  0.84482883  0.25370958    -0.07040
N2220       N  0.82105710  0.85491067  0.31785797    -0.26570
N2221       N  0.93687367  0.87488440  0.29257741    -0.47330
H2222       H  0.85306125  0.91625024  0.24459617     0.06320
C2223       C  0.83321829  0.89343015  0.38608362    -0.07450
Cl2224     Cl  0.87074889  0.87018006  0.32162778    -0.50460
C2225       C  0.91707173  0.83998594  0.39247186     0.42070
H2226       H  0.79308181  0.86142874  0.29489221     0.06290
N2227       N  0.85910306  0.92227681  0.38081699    -0.47170
C2228       C  0.10918146  0.42135223  0.34190634     0.41920
N2229       N  0.12693764  0.39106594  0.35530659     0.00810
C2230       C  0.21447847  0.37925940  0.43486937    -0.07060
H2231       H  0.23240509  0.43446092  0.36236990     0.06310
C2232       C  0.23349654  0.36603848  0.31602381    -0.07410
Co2233     Co  0.15773217  0.39866329  0.39530782     0.74180
N2234       N  0.20392825  0.41576104  0.37743940    -0.26590
Co2235     Co  0.21785070  0.38342454  0.38312999     0.74070
C2236       C  0.25030988  0.38484235  0.31804682     0.42030
N2237       N  0.17587340  0.35162167  0.32482639     0.00430
N2238       N  0.23082266  0.38203443  0.34942826     0.00540
N2239       N  0.17694249  0.38835362  0.44160989    -0.47440
H2240       H  0.12631766  0.44488198  0.36927958     0.06290
N2241       N  0.18209379  0.42133669  0.38164612     0.00820
N2242       N  0.23052493  0.34933039  0.38806942     0.00560
C2243       C  0.25027043  0.31834798  0.39535828     0.42170
N2244       N  0.15452813  0.35818513  0.32924525    -0.26050
C2245       C  0.12274222  0.36813215  0.42851100    -0.06970
N2246       N  0.11194952  0.39810658  0.33950499    -0.47150
N2247       N  0.24813742  0.34137373  0.40053101    -0.47380
C2248       C  0.10840207  0.34694684  0.42419180     0.41940
N2249       N  0.18178180  0.38931811  0.41970768     0.00810
N2250       N  0.15347050  0.32540791  0.36678849    -0.26070
N2251       N  0.13410743  0.40789353  0.36872595    -0.26560
N2252       N  0.17517991  0.31967086  0.36331788     0.00450
H2253       H  0.12422806  0.30639295  0.37912001     0.06340
H2254       H  0.23094871  0.29767037  0.36765356     0.06370
N2255       N  0.20369372  0.38410655  0.41533672    -0.26610
N2256       N  0.22254447  0.36552527  0.33622112    -0.26220
N2257       N  0.12652066  0.35747581  0.39343676     0.00810
C2258       C  0.19668477  0.45113680  0.36569995     0.42210
C2259       C  0.14506487  0.36624776  0.31028439    -0.07470
N2260       N  0.22202229  0.33327848  0.37449143    -0.26220
H2261       H  0.23104738  0.35379229  0.30217315     0.06360
N2262       N  0.17725874  0.44265505  0.37512009    -0.47440
H2263       H  0.12747449  0.37209486  0.30820702     0.06350
C2264       C  0.15949236  0.28876435  0.37608819     0.42050
C2265       C  0.12391061  0.42791674  0.36162373    -0.06970
Co2266     Co  0.13999374  0.35762521  0.36072508     0.73820
N2267       N  0.18142622  0.35407324  0.30317898    -0.47160
C2268       C  0.19671016  0.38233677  0.45186710     0.42310
N2269       N  0.11208836  0.34180646  0.40201700    -0.47150
Co2270     Co  0.19870929  0.34194996  0.34933077     0.73890
C2271       C  0.23319433  0.31326875  0.37778246    -0.07480
C2272       C  0.21452495  0.43379070  0.36769907    -0.07040
N2273       N  0.13338841  0.37321013  0.40825431    -0.26570
N2274       N  0.24789437  0.39389866  0.33943446    -0.47330
H2275       H  0.23246478  0.37457762  0.43676406     0.06320
C2276       C  0.14252687  0.30726217  0.37555629    -0.07450
Cl2277     Cl  0.17868599  0.37061524  0.37233065    -0.50460
C2278       C  0.16280749  0.36341297  0.29333129     0.42070
H2279       H  0.12503763  0.37758917  0.44435435     0.06290
N2280       N  0.17959401  0.29802553  0.36913255    -0.47170
C2281       C  0.42833820  0.34490738  0.10772283     0.41920
N2282       N  0.39755474  0.35632915  0.12546497     0.00810
C2283       C  0.37267199  0.43212613  0.21307143    -0.07060
H2284       H  0.43641181  0.36495466  0.23124165     0.06310
C2285       C  0.37336895  0.31136460  0.23062851    -0.07410
Co2286     Co  0.40022030  0.39665786  0.15701424     0.74180
N2287       N  0.41755653  0.37946393  0.20281834    -0.26590
Co2288     Co  0.38435655  0.38079707  0.21534111     0.74070
C2289       C  0.39044399  0.31581829  0.24844312     0.42030
N2290       N  0.36190020  0.31824394  0.17105316     0.00430
N2291       N  0.38654266  0.34642211  0.22741411     0.00540
N2292       N  0.38273156  0.44162684  0.17678676    -0.47440
H2293       H  0.44972544  0.37417776  0.12543573     0.06290
N2294       N  0.42348149  0.38507202  0.18154469     0.00820
N2295       N  0.34974665  0.38127298  0.22652286     0.00560
C2296       C  0.31778414  0.38566377  0.24515134     0.42170
N2297       N  0.36827333  0.32481292  0.15039635    -0.26050
C2298       C  0.36712106  0.42805440  0.12309747    -0.06970
N2299       N  0.40560765  0.34111473  0.11050045    -0.47150
N2300       N  0.34000041  0.39318140  0.24356974    -0.47380
C2301       C  0.34748564  0.42192030  0.10768965     0.41940
N2302       N  0.38710714  0.41963853  0.18108211     0.00810
N2303       N  0.33180165  0.35913077  0.14950279    -0.26070
N2304       N  0.41302236  0.37108863  0.13304736    -0.26560
N2305       N  0.32538269  0.35249353  0.17012061     0.00450
H2306       H  0.31340937  0.37297346  0.12071614     0.06340
H2307       H  0.30072704  0.35555685  0.22532363     0.06370
N2308       N  0.38142920  0.41373258  0.20230248    -0.26610
N2309       N  0.37214294  0.33115843  0.21863926    -0.26220
N2310       N  0.36079413  0.39119101  0.12475690     0.00810
C2311       C  0.45386068  0.37175476  0.19670609     0.42210
C2312       C  0.37695186  0.30667877  0.13945818    -0.07470
N2313       N  0.33568275  0.36576099  0.21757760    -0.26220
H2314       H  0.36208493  0.29650247  0.22853954     0.06360
N2315       N  0.44542557  0.38093498  0.17734097    -0.47440
H2316       H  0.38189306  0.30639579  0.12162397     0.06350
C2317       C  0.29488322  0.36304989  0.15347127     0.42050
C2318       C  0.43347311  0.36526882  0.12286951    -0.06970
Co2319     Co  0.36431497  0.35756625  0.13732886     0.73820
N2320       N  0.36465195  0.29570916  0.17429933    -0.47160
C2321       C  0.37317470  0.45013493  0.19598133     0.42310
N2322       N  0.34524940  0.39867176  0.10976051    -0.47150
Co2323     Co  0.34831343  0.34138715  0.19421015     0.73890
C2324       C  0.31513584  0.36721854  0.22806835    -0.07480
C2325       C  0.43595504  0.37122552  0.21379737    -0.07040
N2326       N  0.37424838  0.40767301  0.13277908    -0.26570
N2327       N  0.39740193  0.33823826  0.24580625    -0.47330
H2328       H  0.36664886  0.43265745  0.23059175     0.06320
C2329       C  0.31369971  0.36696269  0.13818750    -0.07450
Cl2330     Cl  0.37444687  0.36928158  0.17616882    -0.50460
C2331       C  0.37365271  0.28719406  0.15468633     0.42070
H2332       H  0.37457950  0.44499937  0.12632819     0.06290
N2333       N  0.30299569  0.35432236  0.17319823    -0.47170
C2334       C  0.36394850  0.15697806  0.29552384     0.41920
N2335       N  0.35620727  0.15334940  0.33050607     0.00810
C2336       C  0.34723635  0.24685784  0.40416424    -0.07060
H2337       H  0.41364434  0.25402081  0.35126379     0.06310
C2338       C  0.44409546  0.17002096  0.37785487    -0.07410
Co2339     Co  0.34482466  0.19891398  0.35153209     0.74180
N2340       N  0.38751832  0.22710494  0.35337759    -0.26590
Co2341     Co  0.38760829  0.21320357  0.38662795     0.74070
C2342       C  0.45268599  0.19197279  0.36902644     0.42030
N2343       N  0.40465366  0.12870289  0.36952126     0.00430
N2344       N  0.41870688  0.19729760  0.38096526     0.00540
N2345       N  0.31928532  0.23499100  0.37987040    -0.47440
H2346       H  0.35533749  0.19611170  0.29569713     0.06290
N2347       N  0.37057643  0.22112047  0.33958700     0.00820
N2348       N  0.38671409  0.19866520  0.41854452     0.00560
C2349       C  0.38203638  0.19493128  0.45400270     0.42170
N2350       N  0.38721310  0.12396190  0.35589364    -0.26050
C2351       C  0.29949165  0.18227774  0.37236808    -0.06970
N2352       N  0.36306170  0.14169025  0.31253173    -0.47150
N2353       N  0.38179604  0.21059369  0.43714474    -0.47380
C2354       C  0.28903971  0.16003805  0.37876683     0.41940
N2355       N  0.33826370  0.22244070  0.37752552     0.00810
N2356       N  0.35416868  0.12504237  0.39412145    -0.26070
N2357       N  0.35240606  0.17550291  0.32627828    -0.26560
N2358       N  0.37037348  0.12966471  0.40917946     0.00450
H2359       H  0.32307584  0.10445506  0.39471541     0.06340
H2360       H  0.39020182  0.15582500  0.45340476     0.06370
N2361       N  0.35497917  0.22883820  0.39137998    -0.26610
N2362       N  0.42272337  0.17492648  0.38482138    -0.26220
N2363       N  0.32406603  0.15475102  0.36816988     0.00810
C2364       C  0.38808831  0.24855415  0.32142763     0.42210
C2365       C  0.39447288  0.10988489  0.33897083    -0.07470
N2366       N  0.39050187  0.17626459  0.42256054    -0.26220
H2367       H  0.45239300  0.15319016  0.37857677     0.06360
N2368       N  0.37001618  0.23370055  0.32061401    -0.47440
H2369       H  0.38392478  0.10315832  0.32522045     0.06350
C2370       C  0.34557530  0.10732712  0.42670164     0.42050
C2371       C  0.35669703  0.17950064  0.30427577    -0.06970
Co2372     Co  0.35496169  0.13901305  0.36180594     0.73820
N2373       N  0.42420889  0.11852963  0.36243046    -0.47160
C2374       C  0.32327059  0.25075469  0.39646344     0.42310
N2375       N  0.30593505  0.14414727  0.37671024    -0.47150
Co2376     Co  0.39790696  0.15214641  0.39733301     0.73890
C2377       C  0.38809783  0.17236259  0.44482222    -0.07480
C2378       C  0.39978177  0.24430051  0.34334440    -0.07040
N2379       N  0.32048024  0.17704303  0.36483653    -0.26570
N2380       N  0.43634546  0.20814853  0.37160058    -0.47330
H2381       H  0.35740500  0.25672562  0.41628426     0.06320
C2382       C  0.33820527  0.11107617  0.40334047    -0.07450
Cl2383     Cl  0.37142954  0.17586846  0.37439999    -0.50460
C2384       C  0.41909949  0.10645279  0.34291027     0.42070
H2385       H  0.29190677  0.19943424  0.37188923     0.06290
N2386       N  0.36594449  0.11927887  0.42929803    -0.47170
C2387       C  0.16169519  0.07756958  0.39019576     0.41920
N2388       N  0.14930661  0.10788694  0.37182480     0.00810
C2389       C  0.06485400  0.12102665  0.28933783    -0.07060
H2390       H  0.13791235  0.06473065  0.26963465     0.06310
C2391       C  0.18353630  0.13238705  0.26561808    -0.07410
Co2392     Co  0.10645098  0.10088360  0.34401229     0.74180
N2393       N  0.12234161  0.08283677  0.29797408    -0.26590
Co2394     Co  0.11650555  0.11497047  0.28424126     0.74070
C2395       C  0.18140763  0.11276773  0.25010881     0.42030
N2396       N  0.17852732  0.14669818  0.32188627     0.00430
N2397       N  0.15016646  0.11598219  0.27002194     0.00540
N2398       N  0.05871132  0.11296393  0.32692160    -0.47440
H2399       H  0.13132526  0.05540055  0.37642487     0.06290
N2400       N  0.11881893  0.07737966  0.31974944     0.00820
N2401       N  0.11157006  0.14897148  0.27143287     0.00560
C2402       C  0.10507256  0.17896618  0.25005649     0.42170
N2403       N  0.17529990  0.14057265  0.34333974    -0.26050
C2404       C  0.07619781  0.13293519  0.38031944    -0.06970
N2405       N  0.16572747  0.10036740  0.38592719    -0.47150
N2406       N  0.09948093  0.15620263  0.25338028    -0.47380
C2407       C  0.08237450  0.15355754  0.39480540     0.41940
N2408       N  0.08057999  0.11023628  0.32127044     0.00810
N2409       N  0.13755397  0.17409322  0.34628334    -0.26070
N2410       N  0.13419726  0.09168765  0.36641290    -0.26560
N2411       N  0.13968985  0.17933711  0.32448914     0.00450
H2412       H  0.12360549  0.19282996  0.37480994     0.06340
H2413       H  0.13341277  0.19999304  0.26805257     0.06370
N2414       N  0.08451186  0.11495590  0.29937011    -0.26610
N2415       N  0.16367319  0.13285130  0.27718348    -0.26220
N2416       N  0.11172236  0.14212107  0.37447054     0.00810
C2417       C  0.13590271  0.04819554  0.30517004     0.42210
C2418       C  0.19470563  0.13157627  0.35130759    -0.07470
N2419       N  0.12558866  0.16518083  0.27909897    -0.26220
H2420       H  0.19737180  0.14494616  0.26719900     0.06360
N2421       N  0.12655283  0.05642134  0.32464305    -0.47440
H2422       H  0.19755802  0.12530310  0.36849952     0.06350
C2423       C  0.12284259  0.20885658  0.33904127     0.42050
C2424       C  0.14040406  0.07182917  0.37737252    -0.06970
Co2425     Co  0.14414723  0.14166679  0.35936189     0.73820
N2426       N  0.19969398  0.14256637  0.31469525    -0.47160
C2427       C  0.04814630  0.11953454  0.30753486     0.42310
N2428       N  0.10468903  0.15754294  0.38977373    -0.47150
Co2429     Co  0.15227879  0.15668302  0.30096059     0.73890
C2430       C  0.12255201  0.18469551  0.26705125    -0.07480
C2431       C  0.13256823  0.06517143  0.28736615    -0.07040
N2432       N  0.09568133  0.12713834  0.36838514    -0.26570
N2433       N  0.15989282  0.10365769  0.25320726    -0.47330
H2434       H  0.06281895  0.12646052  0.27173062     0.06320
C2435       C  0.12728438  0.19175890  0.35676869    -0.07450
Cl2436     Cl  0.12970095  0.12845864  0.32213381    -0.50460
C2437       C  0.21082033  0.13298693  0.33242566     0.42070
H2438       H  0.05982368  0.12393364  0.37921188     0.06290
N2439       N  0.13099624  0.19982373  0.31940729    -0.47170
C2440       C  0.34060293  0.14207889  0.20539730     0.41920
N2441       N  0.34414358  0.14927301  0.17040560     0.00810
C2442       C  0.25162468  0.15264540  0.09647718    -0.07060
H2443       H  0.24727405  0.08619993  0.15014720     0.06310
C2444       C  0.33224984  0.05938642  0.12810990    -0.07410
Co2445     Co  0.29868446  0.15813560  0.14933740     0.74180
N2446       N  0.27237879  0.11402479  0.14794182    -0.26590
Co2447     Co  0.28668431  0.11339765  0.11502656     0.74070
C2448       C  0.31129447  0.05079570  0.13898275     0.42030
N2449       N  0.37119743  0.10015104  0.13320260     0.00430
N2450       N  0.30390139  0.08304344  0.12260588     0.00540
N2451       N  0.26227010  0.18150897  0.12045678    -0.47440
H2452       H  0.30166874  0.14942973  0.20550338     0.06290
N2453       N  0.27761313  0.13136070  0.16170233     0.00820
N2454       N  0.30151655  0.11349579  0.08302985     0.00560
C2455       C  0.30564431  0.11654390  0.04736787     0.42170
N2456       N  0.37515638  0.11840255  0.14617646    -0.26050
C2457       C  0.31291703  0.20371277  0.12646330    -0.06970
N2458       N  0.35594526  0.14326611  0.18850265    -0.47150
N2459       N  0.28984142  0.11732821  0.06404872    -0.47380
C2460       C  0.33364575  0.21300206  0.11555013     0.41940
N2461       N  0.27543161  0.16294223  0.12299619     0.00810
N2462       N  0.37282896  0.15013386  0.10672496    -0.26070
N2463       N  0.32201368  0.15235238  0.17467535    -0.26560
N2464       N  0.36934524  0.13282043  0.09242452     0.00450
H2465       H  0.39270197  0.18187821  0.10525795     0.06340
H2466       H  0.34466625  0.10967043  0.04881426     0.06370
N2467       N  0.26985926  0.14565214  0.10928634    -0.26610
N2468       N  0.32621527  0.07970479  0.11888163    -0.26220
N2469       N  0.34133989  0.18012966  0.13122757     0.00810
C2470       C  0.25117665  0.11242552  0.17985641     0.42210
C2471       C  0.38979017  0.11230989  0.16303577    -0.07470
N2472       N  0.32391065  0.11013419  0.07940613    -0.26220
H2473       H  0.34939005  0.05200619  0.12783812     0.06360
N2474       N  0.26529812  0.13117759  0.18085473    -0.47440
H2475       H  0.39638908  0.12398119  0.17598062     0.06350
C2476       C  0.39194376  0.15715588  0.07458456     0.42050
C2477       C  0.31814763  0.14858533  0.19681973    -0.06970
Co2478     Co  0.35856979  0.15004702  0.13901561     0.73820
N2479       N  0.38230714  0.08121051  0.14074259    -0.47160
C2480       C  0.24689470  0.17681595  0.10389434     0.42310
N2481       N  0.35036294  0.19717563  0.11926617    -0.47150
Co2482     Co  0.34786045  0.10484065  0.10515601     0.73890
C2483       C  0.32804045  0.11152636  0.05707290    -0.07480
C2484       C  0.25581817  0.10098206  0.15787881    -0.07040
N2485       N  0.31931661  0.18346334  0.13557555    -0.26570
N2486       N  0.29437256  0.06601772  0.13435807    -0.47330
H2487       H  0.24203936  0.14184391  0.08466125     0.06320
C2488       C  0.38670830  0.16604936  0.09717787    -0.07450
Cl2489     Cl  0.32291286  0.13155290  0.12700591    -0.50460
C2490       C  0.39426201  0.08735976  0.15998876     0.42070
H2491       H  0.29553726  0.21031020  0.12651446     0.06290
N2492       N  0.38068149  0.13622180  0.07265293    -0.47170
C2493       C  0.07351065  0.39091193  0.15406612     0.41920
N2494       N  0.10405406  0.37293678  0.14217570     0.00810
C2495       C  0.12500450  0.28504491  0.06511568    -0.07060
H2496       H  0.06324972  0.26705891  0.13452181     0.06310
C2497       C  0.12538814  0.26524048  0.18371429    -0.07410
Co2498     Co  0.09947441  0.34164807  0.10177979     0.74180
N2499       N  0.08131939  0.29537034  0.11828712    -0.26590
Co2500     Co  0.11366142  0.28179493  0.11559448     0.74070
C2501       C  0.10726331  0.24808527  0.17967174     0.42030
N2502       N  0.13980599  0.32486902  0.17701114     0.00430
N2503       N  0.11192130  0.26906015  0.14939696     0.00540
N2504       N  0.11612502  0.32247422  0.05697754    -0.47440
H2505       H  0.05168160  0.37416595  0.12507615     0.06290
N2506       N  0.07580462  0.31727290  0.11374470     0.00820
N2507       N  0.14763721  0.26913034  0.11400885     0.00560
C2508       C  0.17849071  0.24892563  0.10854895     0.42170
N2509       N  0.13371130  0.34615988  0.17138716    -0.26050
C2510       C  0.13270950  0.37640014  0.07106581    -0.06970
N2511       N  0.09620084  0.38767473  0.15783333    -0.47150
N2512       N  0.15624016  0.25159985  0.10176417    -0.47380
C2513       C  0.15318225  0.39118405  0.07695389     0.41940
N2514       N  0.11134074  0.31745248  0.07837917     0.00810
N2515       N  0.16950613  0.34631260  0.13691438    -0.26070
N2516       N  0.08827276  0.36592801  0.12758472    -0.26560
N2517       N  0.17482169  0.32464876  0.14200547     0.00450
H2518       H  0.18946607  0.37485027  0.12363081     0.06340
H2519       H  0.19743060  0.26785597  0.13775824     0.06370
N2520       N  0.11637731  0.29558548  0.08349989    -0.26610
N2521       N  0.12697794  0.27728696  0.16416507    -0.26220
N2522       N  0.14019345  0.37297810  0.10693968     0.00810
C2523       C  0.04668816  0.30277199  0.13042420     0.42210
C2524       C  0.12511292  0.35678468  0.18954298    -0.07470
N2525       N  0.16247531  0.27732885  0.12901820    -0.26220
H2526       H  0.13682643  0.26696478  0.19824704     0.06360
N2527       N  0.05471937  0.32230905  0.12058107    -0.47440
H2528       H  0.11931708  0.37458113  0.19044478     0.06350
C2529       C  0.20557541  0.33915649  0.12914274     0.42050
C2530       C  0.06809951  0.37649409  0.13358923    -0.06970
Co2531     Co  0.13728156  0.35990125  0.13981127     0.73820
N2532       N  0.13718039  0.32084152  0.19896381    -0.47160
C2533       C  0.12522744  0.30303757  0.04799624     0.42310
N2534       N  0.15602804  0.38789592  0.09962304    -0.47150
Co2535     Co  0.15154873  0.30126208  0.15362089     0.73890
C2536       C  0.18249914  0.26582486  0.12682096    -0.07480
C2537       C  0.06358470  0.28472834  0.12819643    -0.07040
N2538       N  0.12595759  0.36585925  0.09091598    -0.26570
N2539       N  0.10012153  0.25104056  0.15773297    -0.47330
H2540       H  0.13074518  0.26717550  0.06408734     0.06320
C2541       C  0.18801700  0.35678055  0.12849226    -0.07450
Cl2542     Cl  0.12541130  0.32109991  0.12761347    -0.50460
C2543       C  0.12868696  0.34066194  0.20780676     0.42070
H2544       H  0.12430526  0.37419977  0.05469728     0.06290
N2545       N  0.19651403  0.31967906  0.13785091    -0.47170
C2546       C  0.62554160  0.28792647  0.16604193     0.41920
N2547       N  0.63993364  0.32162993  0.15944136     0.00810
C2548       C  0.65729103  0.40092274  0.24598180    -0.07060
H2549       H  0.58544387  0.35329354  0.25623349     0.06310
C2550       C  0.55867533  0.37792051  0.17151927    -0.07410
Co2551     Co  0.65436494  0.34397128  0.20268545     0.74180
N2552       N  0.61204039  0.35202826  0.23009067    -0.26590
Co2553     Co  0.61525692  0.38488019  0.21430060     0.74070
C2554       C  0.54940283  0.37022822  0.19327893     0.42030
N2555       N  0.59679820  0.36497971  0.13122207     0.00430
N2556       N  0.58375558  0.38132361  0.19861711     0.00540
N2557       N  0.68298044  0.37314628  0.23604116    -0.47440
H2558       H  0.63436564  0.29070944  0.20427385     0.06290
N2559       N  0.62757003  0.33614136  0.22503059     0.00820
N2560       N  0.61982961  0.41615893  0.19814183     0.00560
C2561       C  0.63328330  0.44984620  0.19205279     0.42170
N2562       N  0.61295679  0.34929967  0.12785614    -0.26050
C2563       C  0.70215568  0.35778478  0.18492464    -0.06970
N2564       N  0.62923116  0.30409451  0.14981542    -0.47150
N2565       N  0.62930004  0.43413458  0.20846610    -0.47380
C2566       C  0.71107015  0.36670463  0.16341233     0.41940
N2567       N  0.66366911  0.37132565  0.22406508     0.00810
N2568       N  0.64937672  0.38484895  0.12707780    -0.26070
N2569       N  0.64356906  0.31813839  0.18136967    -0.26560
N2570       N  0.63452633  0.40172017  0.13081315     0.00450
H2571       H  0.67972094  0.38176865  0.10568409     0.06340
H2572       H  0.62455623  0.44836240  0.15371006     0.06370
N2573       N  0.64827883  0.38727438  0.22938808    -0.26610
N2574       N  0.58030130  0.38421298  0.17634584    -0.26220
N2575       N  0.67594823  0.35730961  0.15886063     0.00810
C2576       C  0.60782294  0.32024851  0.25201583     0.42210
C2577       C  0.60507680  0.33272661  0.11372912    -0.07470
N2578       N  0.61674573  0.41949160  0.17589280    -0.26220
H2579       H  0.55072882  0.37794377  0.15477767     0.06360
N2580       N  0.62593581  0.31725035  0.23787572    -0.47440
H2581       H  0.61483730  0.31785322  0.10780502     0.06350
C2582       C  0.65963271  0.41616587  0.10676788     0.42050
C2583       C  0.63522266  0.29731890  0.18708706    -0.06970
Co2584     Co  0.64508203  0.35273925  0.14316638     0.73820
N2585       N  0.57740510  0.35970513  0.11974676    -0.47160
C2586       C  0.68066308  0.39169543  0.25003097     0.42310
N2587       N  0.69383088  0.36605688  0.14825192    -0.47150
Co2588     Co  0.60616799  0.39353992  0.15340007     0.73890
C2589       C  0.62437039  0.44071938  0.17061123    -0.07480
C2590       C  0.59874592  0.34370395  0.24729267    -0.07040
N2591       N  0.68011155  0.35281382  0.18052503    -0.26570
N2592       N  0.56539451  0.37347494  0.20943808    -0.47330
H2593       H  0.64834383  0.41484111  0.25473577     0.06320
C2594       C  0.66552264  0.39210475  0.11210962    -0.07450
Cl2595     Cl  0.63010248  0.36886881  0.17839391    -0.50460
C2596       C  0.58141879  0.33926715  0.10827456     0.42070
H2597       H  0.71068693  0.35609632  0.20128696     0.06290
N2598       N  0.63999467  0.42096053  0.11898223    -0.47170
C2599       C  0.57507750  0.10707515  0.34618287     0.41920
N2600       N  0.60555442  0.12448022  0.35930579     0.00810
C2601       C  0.61873440  0.21492884  0.43641408    -0.07060
H2602       H  0.56446346  0.23015436  0.36324376     0.06310
C2603       C  0.62863035  0.23089173  0.31676722    -0.07410
Co2604     Co  0.59924907  0.15635399  0.39901516     0.74180
N2605       N  0.58184341  0.20219892  0.38069736    -0.26590
Co2606     Co  0.61434456  0.21566513  0.38478442     0.74070
C2607       C  0.61043873  0.24815947  0.32012075     0.42030
N2608       N  0.64284947  0.17151462  0.32504773     0.00430
N2609       N  0.61444830  0.22789842  0.35090529     0.00540
N2610       N  0.60911090  0.17759466  0.44489027    -0.47440
H2611       H  0.55247060  0.12457886  0.37418041     0.06290
N2612       N  0.57603200  0.18040466  0.38551312     0.00820
N2613       N  0.64853278  0.22787812  0.38769875     0.00560
C2614       C  0.67931488  0.24828594  0.39319729     0.42170
N2615       N  0.63701718  0.15003863  0.33045889    -0.26050
C2616       C  0.63196033  0.12307361  0.43187138    -0.06970
N2617       N  0.59797849  0.11011618  0.34320602    -0.47150
N2618       N  0.65688597  0.24575939  0.39964974    -0.47380
C2619       C  0.65327323  0.10915713  0.42724445     0.41940
N2620       N  0.60907265  0.18117908  0.42270754     0.00810
N2621       N  0.67112610  0.15012082  0.36601882    -0.26070
N2622       N  0.58931447  0.13172010  0.37325912    -0.26560
N2623       N  0.67694671  0.17162737  0.36106631     0.00450
H2624       H  0.68979145  0.12062433  0.37798155     0.06340
H2625       H  0.69894307  0.22837911  0.36513257     0.06370
N2626       N  0.61450675  0.20292536  0.41738950    -0.26610
N2627       N  0.62988324  0.21934468  0.33670826    -0.26220
N2628       N  0.64052775  0.12519326  0.39608840     0.00810
C2629       C  0.54740794  0.19456914  0.36764545     0.42210
C2630       C  0.62980263  0.13902261  0.31188659    -0.07470
N2631       N  0.66383019  0.21923412  0.37335384    -0.26220
H2632       H  0.64022892  0.22873274  0.30239994     0.06360
N2633       N  0.55516722  0.17523262  0.37807347    -0.47440
H2634       H  0.62487071  0.12092892  0.31069779     0.06350
C2635       C  0.70811812  0.15557639  0.37220299     0.42050
C2636       C  0.56919685  0.12156793  0.36648812    -0.06970
Co2637     Co  0.63887000  0.13713856  0.36263242     0.73820
N2638       N  0.64061578  0.17575578  0.30310704    -0.47160
C2639       C  0.61483548  0.19811167  0.45424829     0.42310
N2640       N  0.65689191  0.11156825  0.40460592    -0.47150
Co2641     Co  0.65390304  0.19524021  0.34858703     0.73890
C2642       C  0.68381397  0.23067426  0.37576587    -0.07480
C2643       C  0.56447255  0.21262724  0.36995132    -0.07040
N2644       N  0.62553390  0.13255442  0.41139645    -0.26570
N2645       N  0.60282970  0.24566404  0.34194182    -0.47330
H2646       H  0.62288755  0.23325444  0.43745979     0.06320
C2647       C  0.68947381  0.13882779  0.37349898    -0.07450
Cl2648     Cl  0.62655742  0.17616900  0.37388815    -0.50460
C2649       C  0.63255595  0.15593740  0.29403325     0.42070
H2650       H  0.62346982  0.12614088  0.44808829     0.06290
N2651       N  0.69901748  0.17558150  0.36435313    -0.47170
C2652       C  0.83678752  0.36776062  0.29252552     0.41920
N2653       N  0.84103579  0.35959099  0.32750343     0.00810
C2654       C  0.75158646  0.34457937  0.40414797    -0.07060
H2655       H  0.74299631  0.41623711  0.35446157     0.06310
C2656       C  0.82745674  0.44357339  0.38045426    -0.07410
Co2657     Co  0.79671342  0.34636523  0.34909485     0.74180
N2658       N  0.76893076  0.38906638  0.35500757    -0.26590
Co2659     Co  0.78404412  0.38672372  0.38797175     0.74070
C2660       C  0.80559777  0.45294782  0.37266406     0.42030
N2661       N  0.86810218  0.40511806  0.36804258     0.00430
N2662       N  0.79992138  0.41847766  0.38393956     0.00540
N2663       N  0.76209033  0.31852932  0.37719194    -0.47440
H2664       H  0.79827974  0.35800078  0.29303213     0.06290
N2665       N  0.77480283  0.37322635  0.33979874     0.00820
N2666       N  0.80014151  0.38283762  0.41922999     0.00560
C2667       C  0.80756745  0.37003229  0.45251751     0.42170
N2668       N  0.87224928  0.38815776  0.35349696    -0.26050
C2669       C  0.81305553  0.29997343  0.36760681    -0.06970
N2670       N  0.85210645  0.36722868  0.30952764    -0.47150
N2671       N  0.79043446  0.37299803  0.43732592    -0.47380
C2672       C  0.83471571  0.28970450  0.37459665     0.41940
N2673       N  0.77416234  0.33799060  0.37543399     0.00810
N2674       N  0.87231266  0.35255864  0.38970757    -0.26070
N2675       N  0.81907044  0.35541736  0.32351540    -0.26560
N2676       N  0.86845497  0.36816571  0.40568797     0.00450
H2677       H  0.89349587  0.32167678  0.38786724     0.06340
H2678       H  0.84594880  0.38034468  0.44938634     0.06370
N2679       N  0.76855445  0.35362569  0.39087674    -0.26610
N2680       N  0.82238036  0.42198530  0.38685982    -0.26220
N2681       N  0.84073096  0.32445138  0.36311815     0.00810
C2682       C  0.74817849  0.39266281  0.32265306     0.42210
C2683       C  0.88678802  0.39571013  0.33710085    -0.07470
N2684       N  0.82257857  0.38663700  0.42197742    -0.26220
H2685       H  0.84449484  0.45129106  0.38036431     0.06360
N2686       N  0.76294475  0.37467198  0.32051746    -0.47440
H2687       H  0.89328775  0.38541836  0.32300030     0.06350
C2688       C  0.89217982  0.34306344  0.42097836     0.42050
C2689       C  0.81474716  0.35990301  0.30155481    -0.06970
Co2690     Co  0.85672511  0.35569320  0.35801984     0.73820
N2691       N  0.87931009  0.42469375  0.36209058    -0.47160
C2692       C  0.74774123  0.32088387  0.39518298     0.42310
N2693       N  0.85095735  0.30620924  0.37192532    -0.47150
Co2694     Co  0.84553399  0.39643106  0.39646499     0.73890
C2695       C  0.82858288  0.37971765  0.44269567    -0.07480
C2696       C  0.75204152  0.40233868  0.34578230    -0.07040
N2697       N  0.81850901  0.32105612  0.36002911    -0.26570
N2698       N  0.78924797  0.43671757  0.37535475    -0.47330
H2699       H  0.74253748  0.35365095  0.41766729     0.06320
C2700       C  0.88708714  0.33639778  0.39749864    -0.07450
Cl2701     Cl  0.82072967  0.37145602  0.37295584    -0.50460
C2702       C  0.89140585  0.42006990  0.34238400     0.42070
H2703       H  0.79594585  0.29266206  0.36810315     0.06290
N2704       N  0.88015261  0.36321579  0.42490323    -0.47170
C2705       C  0.60874319  0.08048166  0.15561660     0.41920
N2706       N  0.62724744  0.10998705  0.14138924     0.00810
C2707       C  0.71549247  0.12302245  0.06353492    -0.07060
H2708       H  0.73190009  0.06551424  0.13722427     0.06310
C2709       C  0.73313871  0.13287369  0.18243052    -0.07410
Co2710     Co  0.65869227  0.10084563  0.10169530     0.74180
N2711       N  0.70415432  0.08329337  0.12013652    -0.26590
Co2712     Co  0.71799333  0.11583828  0.11495026     0.74070
C2713       C  0.75019025  0.11428383  0.17999489     0.42030
N2714       N  0.67491508  0.14888680  0.17344804     0.00430
N2715       N  0.73021079  0.11711091  0.14892445     0.00540
N2716       N  0.67849343  0.11328059  0.05540963    -0.47440
H2717       H  0.62592550  0.05574874  0.12923019     0.06290
N2718       N  0.68248512  0.07756066  0.11538960     0.00820
N2719       N  0.73088199  0.15004985  0.11076073     0.00560
C2720       C  0.75077909  0.18102692  0.10380477     0.42170
N2721       N  0.65355527  0.14311740  0.16814403    -0.26050
C2722       C  0.62409811  0.13115910  0.06817957    -0.06970
N2723       N  0.61203374  0.10367205  0.15729993    -0.47150
N2724       N  0.74865216  0.15804663  0.09849116    -0.47380
C2725       C  0.60987629  0.15246112  0.07202362     0.41940
N2726       N  0.68320317  0.10981142  0.07718047     0.00810
N2727       N  0.65457665  0.17536579  0.13001979    -0.26070
N2728       N  0.63439481  0.09263403  0.12851797    -0.26560
N2729       N  0.67586074  0.18120140  0.13535784     0.00450
H2730       H  0.62610890  0.19446570  0.11624126     0.06340
H2731       H  0.73127965  0.20169632  0.13132586     0.06370
N2732       N  0.70479811  0.11548194  0.08229869    -0.26610
N2733       N  0.72190540  0.13349139  0.16235660    -0.26220
N2734       N  0.62821218  0.14292629  0.10287000     0.00810
C2735       C  0.69677711  0.04789361  0.13179319     0.42210
C2736       C  0.64258468  0.13637072  0.18683392    -0.07470
N2737       N  0.72237193  0.16607595  0.12442362    -0.26220
H2738       H  0.73100714  0.14518603  0.19627677     0.06360
N2739       N  0.67740856  0.05629568  0.12216895    -0.47440
H2740       H  0.62463816  0.13141389  0.18815577     0.06350
C2741       C  0.66056080  0.21253178  0.12285927     0.42050
C2742       C  0.62369859  0.07302057  0.13624158    -0.06970
Co2743     Co  0.64064211  0.14327133  0.13594408     0.73820
N2744       N  0.67916648  0.14712646  0.19547417    -0.47160
C2745       C  0.69809677  0.12135634  0.04589196     0.42310
N2746       N  0.61360057  0.15823195  0.09401870    -0.47150
Co2747     Co  0.69857397  0.15789135  0.14935152     0.73890
C2748       C  0.73361879  0.18607185  0.12126062    -0.07480
C2749       C  0.71450409  0.06552050  0.13052841    -0.07040
N2750       N  0.63488814  0.12667175  0.08846429    -0.26570
N2751       N  0.74755080  0.10544990  0.15858378    -0.47330
H2752       H  0.73272177  0.13022133  0.06297531     0.06320
C2753       C  0.64417185  0.19361318  0.12082209    -0.07450
Cl2754     Cl  0.67902701  0.12933575  0.12541226    -0.50460
C2755       C  0.65948208  0.13906233  0.20453123     0.42070
H2756       H  0.62595103  0.12102064  0.05269155     0.06290
N2757       N  0.68025954  0.20328479  0.13113808    -0.47170
C2758       C  0.92057053  0.15667415  0.39368442     0.41920
N2759       N  0.89057562  0.14511730  0.37495756     0.00810
C2760       C  0.87549908  0.06724148  0.28606959    -0.07060
H2761       H  0.93779780  0.13638433  0.27224952     0.06310
C2762       C  0.87668060  0.18833540  0.26701535    -0.07410
Co2763     Co  0.89628963  0.10472429  0.34370167     0.74180
N2764       N  0.91720385  0.12124454  0.29910250    -0.26590
Co2765     Co  0.88527391  0.11902224  0.28381526     0.74070
C2766       C  0.89456888  0.18341370  0.25017413     0.42030
N2767       N  0.86142920  0.18145448  0.32499577     0.00430
N2768       N  0.88873252  0.15301140  0.27104359     0.00540
N2769       N  0.88238094  0.05896478  0.32334106    -0.47440
H2770       H  0.94300923  0.12793806  0.37688772     0.06290
N2771       N  0.92137069  0.11646921  0.32094431     0.00820
N2772       N  0.85147801  0.11834863  0.26997375     0.00560
C2773       C  0.82034365  0.11414929  0.25003278     0.42170
N2774       N  0.86394065  0.17605266  0.34672643    -0.26050
C2775       C  0.86232099  0.07358707  0.37659433    -0.06970
N2776       N  0.89794378  0.16057559  0.39015454    -0.47150
N2777       N  0.84221633  0.10591041  0.25297113    -0.47380
C2778       C  0.84173886  0.07935495  0.39081549     0.41940
N2779       N  0.88554804  0.08115193  0.31910782     0.00810
N2780       N  0.82704855  0.14136270  0.34411089    -0.26070
N2781       N  0.90660896  0.13055706  0.36810653    -0.26560
N2782       N  0.82327946  0.14798422  0.32286688     0.00450
H2783       H  0.80575049  0.12385303  0.36883792     0.06340
H2784       H  0.80315184  0.14532896  0.26776717     0.06370
N2785       N  0.88166338  0.08638268  0.29733946    -0.26610
N2786       N  0.87428929  0.16862558  0.27890785    -0.26220
N2787       N  0.85408913  0.10993310  0.37269172     0.00810
C2788       C  0.95249047  0.13124449  0.30825045     0.42210
C2789       C  0.87388099  0.19385316  0.35726774    -0.07470
N2790       N  0.83740061  0.13460376  0.27744529    -0.26220
H2791       H  0.86550002  0.20335097  0.26830180     0.06360
N2792       N  0.94261106  0.12195314  0.32695628    -0.47440
H2793       H  0.87755232  0.19486531  0.37533517     0.06350
C2794       C  0.79193307  0.13207713  0.33326086     0.42050
C2795       C  0.92651561  0.13649717  0.37897271    -0.06970
Co2796     Co  0.85822374  0.14360576  0.36005127     0.73820
N2797       N  0.86952826  0.20227123  0.32012359    -0.47160
C2798       C  0.87576747  0.04942778  0.30342518     0.42310
N2799       N  0.83833580  0.10237277  0.38749935    -0.47150
Co2800     Co  0.84865010  0.15883673  0.30130753     0.73890
C2801       C  0.81746891  0.13338538  0.26599066    -0.07480
C2802       C  0.93609941  0.13029447  0.28968228    -0.07040
N2803       N  0.86875848  0.09378879  0.36617678    -0.26570
N2804       N  0.90076427  0.16081903  0.25318798    -0.47330
H2805       H  0.87196264  0.06602427  0.26793338     0.06320
C2806       C  0.80824330  0.13086629  0.35187779    -0.07450
Cl2807     Cl  0.87216013  0.13118956  0.32214725    -0.50460
C2808       C  0.87698522  0.21161292  0.33992967     0.42070
H2809       H  0.87117542  0.05710367  0.37499609     0.06290
N2810       N  0.80223803  0.14314050  0.31587304    -0.47170
C2811       C  0.86800871  0.34131290  0.20628229     0.41920
N2812       N  0.86008346  0.34531180  0.17120764     0.00810
C2813       C  0.84644442  0.25350296  0.09685442    -0.07060
H2814       H  0.91523155  0.24573521  0.14692884     0.06310
C2815       C  0.94381105  0.32964464  0.12074373    -0.07410
Co2816     Co  0.84631597  0.30033764  0.15053679     0.74180
N2817       N  0.88863466  0.27218335  0.14627157    -0.26590
Co2818     Co  0.88709462  0.28659139  0.11335189     0.74070
C2819       C  0.95209066  0.30772513  0.12972828     0.42030
N2820       N  0.90602504  0.37135543  0.13018704     0.00430
N2821       N  0.91822996  0.30251065  0.11780807     0.00540
N2822       N  0.81922760  0.26460706  0.12240718    -0.47440
H2823       H  0.85791970  0.30264014  0.20614537     0.06290
N2824       N  0.87234646  0.27784869  0.16092288     0.00820
N2825       N  0.88457444  0.30168733  0.08177099     0.00560
C2826       C  0.87547660  0.30603499  0.04721036     0.42170
N2827       N  0.88937572  0.37561241  0.14486682    -0.26050
C2828       C  0.80047419  0.31816616  0.13176194    -0.06970
N2829       N  0.86761683  0.35661700  0.18913638    -0.47150
N2830       N  0.87736208  0.29013392  0.06370779    -0.47380
C2831       C  0.79189150  0.33995257  0.12202090     0.41940
N2832       N  0.83827012  0.27720853  0.12441779     0.00810
N2833       N  0.85482096  0.37564667  0.10840460    -0.26070
N2834       N  0.85556573  0.32329797  0.17551681    -0.26560
N2835       N  0.86983196  0.37091076  0.09225133     0.00450
H2836       H  0.82463554  0.39741565  0.11040432     0.06340
H2837       H  0.88415148  0.34501577  0.04732098     0.06370
N2838       N  0.85446719  0.27117606  0.10981659    -0.26610
N2839       N  0.92236616  0.32488541  0.11393195    -0.26220
N2840       N  0.82626942  0.34486660  0.13439089     0.00810
C2841       C  0.89118132  0.25077084  0.17806632     0.42210
C2842       C  0.89720776  0.38966400  0.16148593    -0.07470
N2843       N  0.88816394  0.32413248  0.07766535    -0.26220
H2844       H  0.95224730  0.34642435  0.12012695     0.06360
N2845       N  0.87291676  0.26525060  0.17988005    -0.47440
H2846       H  0.88724975  0.39608515  0.17582204     0.06350
C2847       C  0.84492157  0.39459401  0.07686627     0.42050
C2848       C  0.86004139  0.31912014  0.19745668    -0.06970
Co2849     Co  0.85723299  0.36055879  0.14016480     0.73820
N2850       N  0.92575741  0.38190581  0.13623373    -0.47160
C2851       C  0.82286265  0.24932077  0.10524452     0.42310
N2852       N  0.80915726  0.35536088  0.12402330    -0.47150
Co2853     Co  0.89747211  0.34812014  0.10257695     0.73890
C2854       C  0.88315632  0.32834375  0.05584998    -0.07480
C2855       C  0.90159341  0.25514534  0.15555345    -0.07040
N2856       N  0.82176976  0.32291062  0.13885176    -0.26570
N2857       N  0.93581423  0.29156525  0.12698243    -0.47330
H2858       H  0.85624976  0.24402075  0.08415061     0.06320
C2859       C  0.83897458  0.39054749  0.10063494    -0.07450
Cl2860     Cl  0.87221995  0.32379800  0.12648869    -0.50460
C2861       C  0.92142300  0.39371495  0.15612570     0.42070
H2862       H  0.79232531  0.30134791  0.13316975     0.06290
N2863       N  0.86458343  0.38194757  0.07267951    -0.47170
O2864       O  0.71506466  0.02551158  0.52703441    -0.80670
O2865       O  0.71317114  0.97809752  0.47615379    -0.80690
O2866       O  0.74065322  0.05204386  0.47753178    -0.80700
O2867       O  0.74151744  0.95164750  0.52538987    -0.80640
O2868       O  0.71405974  0.02549680  0.47595997    -0.80770
O2869       O  0.71556361  0.97852588  0.52749163    -0.80690
O2870       O  0.73940005  0.95127764  0.47900546    -0.80670
O2871       O  0.74090716  0.05276149  0.52360182    -0.80710
C2872       C  0.72040734  0.04664891  0.52910174     1.09020
C2873       C  0.71878091  0.95709359  0.47356481     1.08900
C2874       C  0.71959211  0.04655248  0.47367903     1.09040
C2875       C  0.72103770  0.95769397  0.53084756     1.08920
O2876       O  0.76161422  0.97950989  0.55084506    -0.80670
O2877       O  0.75964901  0.02437704  0.45104589    -0.80750
O2878       O  0.78718238  0.02952380  0.52447168    -0.80680
O2879       O  0.78585161  0.97420198  0.47660899    -0.80660
O2880       O  0.75841913  0.97730521  0.45136048    -0.80720
O2881       O  0.76056507  0.02624088  0.55045063    -0.80680
O2882       O  0.78726238  0.97495931  0.52382801    -0.80640
O2883       O  0.78633280  0.02821693  0.47709722    -0.80710
Co2884     Co  0.73867341  0.00234393  0.53557989     1.51530
Co2885     Co  0.73699749  0.00143884  0.46704376     1.51690
Co2886     Co  0.76334418  0.03706767  0.50069940     1.51570
Co2887     Co  0.76303566  0.96655514  0.50117797     1.51470
O2888       O  0.75083082  0.00184568  0.50110592    -1.42600
C2889       C  0.78201527  0.97363650  0.54477457     1.08950
C2890       C  0.78027278  0.03031785  0.45645432     1.09040
C2891       C  0.78123711  0.03181120  0.54519581     1.08970
C2892       C  0.77915820  0.97152398  0.45622517     1.08950
C2893       C  0.82316310  0.07412710  0.42953964    -0.09690
C2894       C  0.82747259  0.06502322  0.40756734     0.06510
C2895       C  0.81598633  0.04403984  0.40170242    -0.03460
C2896       C  0.80057317  0.03303636  0.41737554    -0.07910
C2897       C  0.79656245  0.04210437  0.43952820     0.05620
C2898       C  0.80838999  0.06291840  0.44536248    -0.02930
Br2899     Br  0.80384114  0.07801429  0.47435802    -0.02630
H2900       H  0.83128586  0.09036285  0.43447269     0.09530
H2901       H  0.79179014  0.01723205  0.41222942     0.07550
Br2902     Br  0.81965638  0.03055855  0.37192645    -0.03050
C2903       C  0.91425927  0.22852551  0.20693499    -0.09690
C2904       C  0.89440375  0.23033479  0.19322581     0.06510
C2905       C  0.87642706  0.21404395  0.19625769    -0.03460
C2906       C  0.87772694  0.19749174  0.21379720    -0.07910
C2907       C  0.89681608  0.19668804  0.22855542     0.05620
C2908       C  0.91550307  0.21189039  0.22459579    -0.02930
Br2909     Br  0.94202701  0.21178027  0.24420443    -0.02630
H2910       H  0.92820592  0.24092418  0.20481353     0.09530
H2911       H  0.86320486  0.18593274  0.21666799     0.07550
Br2912     Br  0.84935141  0.21414993  0.17728955    -0.03050
C2913       C  0.76272730  0.10708137  0.22007910    -0.09690
C2914       C  0.76885476  0.10882344  0.19689045     0.06510
C2915       C  0.79262130  0.10822780  0.19115085    -0.03460
C2916       C  0.80956098  0.10789685  0.20858817    -0.07910
C2917       C  0.80323082  0.10794389  0.23185773     0.05620
C2918       C  0.77951713  0.10631634  0.23735579    -0.02930
Br2919     Br  0.76901086  0.10327169  0.26842056    -0.02630
H2920       H  0.74464272  0.10700283  0.22488348     0.09530
H2921       H  0.82763483  0.10922610  0.20395128     0.07550
Br2922     Br  0.80292875  0.11056401  0.16003778    -0.03050
C2923       C  0.78318255  0.23737720  0.09507422    -0.09690
C2924       C  0.80603276  0.23071198  0.09939706     0.06510
C2925       C  0.81113241  0.20673987  0.10139570    -0.03460
C2926       C  0.79315326  0.19015359  0.10062829    -0.07910
C2927       C  0.77003583  0.19713480  0.09792358     0.05620
C2928       C  0.76537376  0.22093364  0.09408690    -0.02930
Br2929     Br  0.73471327  0.23215102  0.08813786    -0.02630
H2930       H  0.77899489  0.25566800  0.09330515     0.09530
H2931       H  0.79706213  0.17202467  0.10389428     0.07550
Br2932     Br  0.84173163  0.19600041  0.10812873    -0.03050
C2933       C  0.84427124  0.36608265  0.22994946    -0.09690
C2934       C  0.86162842  0.34904346  0.22844565     0.06510
C2935       C  0.87055734  0.33821381  0.24778768    -0.03460
C2936       C  0.86197606  0.34465947  0.26877399    -0.07910
C2937       C  0.84467359  0.36174443  0.27030562     0.05620
C2938       C  0.83559414  0.37244616  0.25096499    -0.02930
Br2939     Br  0.81166299  0.39550903  0.25247029    -0.02630
H2940       H  0.83695444  0.37395801  0.21474006     0.09530
H2941       H  0.86867088  0.33612136  0.28392319     0.07550
Br2942     Br  0.89418452  0.31480749  0.24632856    -0.03050
C2943       C  0.86314228  0.25988766  0.37828476    -0.09690
C2944       C  0.84162751  0.26631985  0.36922687     0.06510
C2945       C  0.83329264  0.25560917  0.34909028    -0.03460
C2946       C  0.84752382  0.24067463  0.33742122    -0.07910
C2947       C  0.86902326  0.23434190  0.34635568     0.05620
C2948       C  0.87715044  0.24441493  0.36664341    -0.02930
Br2949     Br  0.90704722  0.23729515  0.37899632    -0.02630
H2950       H  0.86992350  0.26856608  0.39334652     0.09530
H2951       H  0.84065861  0.23241425  0.32219477     0.07550
Br2952     Br  0.80322128  0.25966230  0.33550023    -0.03050
C2953       C  0.76561421  0.16085763  0.34625092    -0.09690
C2954       C  0.76905866  0.13779347  0.33942491     0.06510
C2955       C  0.75413429  0.12008118  0.34604428    -0.03460
C2956       C  0.73525183  0.12570666  0.35925101    -0.07910
C2957       C  0.73118416  0.14900960  0.36561767     0.05620
C2958       C  0.74720873  0.16646995  0.36005484    -0.02930
Br2959     Br  0.74551749  0.19789328  0.37135215    -0.02630
H2960       H  0.77837005  0.17414348  0.34239462     0.09530
H2961       H  0.72351230  0.11178497  0.36359586     0.07550
Br2962     Br  0.75933201  0.08816342  0.33775953    -0.03050
C2963       C  0.66287694  0.13024760  0.24442704    -0.09690
C2964       C  0.65311108  0.14377476  0.22734677     0.06510
C2965       C  0.63683815  0.16125009  0.23208048    -0.03460
C2966       C  0.62928232  0.16393373  0.25419259    -0.07910
C2967       C  0.63849473  0.14997839  0.27130726     0.05620
C2968       C  0.65601090  0.13352383  0.26674378    -0.02930
Br2969     Br  0.67306334  0.11685377  0.28979181    -0.02630
H2970       H  0.67597960  0.11740203  0.24039089     0.09530
H2971       H  0.61684155  0.17744221  0.25820939     0.07550
Br2972     Br  0.62556733  0.18285019  0.20956916    -0.03050
C2973       C  0.70962927  0.08368615  0.45225722    -0.09690
C2974       C  0.70201554  0.06406647  0.46456415     0.06510
C2975       C  0.67764335  0.06123919  0.46681199    -0.03460
C2976       C  0.66198272  0.07672401  0.45588735    -0.07910
C2977       C  0.66975825  0.09556823  0.44252788     0.05620
C2978       C  0.69401934  0.09914638  0.44152087    -0.02930
Br2979     Br  0.70711809  0.12562868  0.42648017    -0.02630
H2980       H  0.72799598  0.08685490  0.45051953     0.09530
H2981       H  0.64359869  0.07348951  0.45723054     0.07550
Br2982     Br  0.66443522  0.03685940  0.48506998    -0.03050
C2983       C  0.71917253  0.26195956  0.40068427    -0.09690
C2984       C  0.69561962  0.26750378  0.39920938     0.06510
C2985       C  0.68916647  0.29123490  0.40036550    -0.03460
C2986       C  0.70631028  0.30875362  0.40107578    -0.07910
C2987       C  0.72992617  0.30300800  0.40072316     0.05620
C2988       C  0.73613580  0.27929575  0.40157521    -0.02930
Br2989     Br  0.76774085  0.26947649  0.40358263    -0.02630
H2990       H  0.72453497  0.24390124  0.40031830     0.09530
H2991       H  0.70117779  0.32685806  0.40030017     0.07550
Br2992     Br  0.65753991  0.30085430  0.39844461    -0.03050
C2993       C  0.73373706  0.33761252  0.14505409    -0.09690
C2994       C  0.73279727  0.36003441  0.15448448     0.06510
C2995       C  0.74843250  0.37719442  0.14803127    -0.03460
C2996       C  0.76612714  0.37126717  0.13333129    -0.07910
C2997       C  0.76857892  0.34806193  0.12578714     0.05620
C2998       C  0.75097636  0.33186023  0.12982059    -0.02930
Br2999     Br  0.74898924  0.30244948  0.11427563    -0.02630
H3000       H  0.72004157  0.32513948  0.14832909     0.09530
H3001       H  0.77902077  0.38439063  0.12952936     0.07550
Br3002     Br  0.74630000  0.40853376  0.15925356    -0.03050
C3003       C  0.65177020  0.23227289  0.15834474    -0.09690
C3004       C  0.65074102  0.23228957  0.13431905     0.06510
C3005       C  0.63434203  0.24589036  0.12301222    -0.03460
C3006       C  0.62027537  0.26041022  0.13572999    -0.07910
C3007       C  0.62466646  0.26366983  0.15917670     0.05620
C3008       C  0.63831355  0.24741747  0.17093384    -0.02930
Br3009     Br  0.63937735  0.24456568  0.20366108    -0.02630
H3010       H  0.66235767  0.21977379  0.16743725     0.09530
H3011       H  0.60891305  0.27216523  0.12664297     0.07550
Br3012     Br  0.63170126  0.24624953  0.09032242    -0.03050
C3013       C  0.59341033  0.26519207  0.28463327    -0.09690
C3014       C  0.60593663  0.26845313  0.30496077     0.06510
C3015       C  0.61644052  0.29025528  0.30891650    -0.03460
C3016       C  0.61511757  0.30793381  0.29229741    -0.07910
C3017       C  0.60342947  0.30429349  0.27153606     0.05620
C3018       C  0.59207870  0.28287873  0.26804900    -0.02930
Br3019     Br  0.57569787  0.27667421  0.24018346    -0.02630
H3020       H  0.58539787  0.24850206  0.28122611     0.09530
H3021       H  0.62450221  0.32402780  0.29497752     0.07550
Br3022     Br  0.63485808  0.29577990  0.33563588    -0.03050
C3023       C  0.69048317  0.40007996  0.29126845    -0.09690
C3024       C  0.69768624  0.39720581  0.26841928     0.06510
C3025       C  0.72158822  0.39642169  0.26380576    -0.03460
C3026       C  0.73759049  0.39662930  0.28177617    -0.07910
C3027       C  0.73049746  0.39784815  0.30475070     0.05620
C3028       C  0.70662394  0.40029967  0.30939883    -0.02930
Br3029     Br  0.69480946  0.40105200  0.34005528    -0.02630
H3030       H  0.67219879  0.40057042  0.29519187     0.09530
H3031       H  0.75579835  0.39497002  0.27776350     0.07550
Br3032     Br  0.73342127  0.39483042  0.23312026    -0.03050
C3033       C  0.01083733  0.28697772  0.11717647    -0.09690
C3034       C  0.02279537  0.29884498  0.13426356     0.06510
C3035       C  0.01132575  0.31054225  0.15189458    -0.03460
C3036       C  0.98751989  0.31209853  0.15109683    -0.07910
C3037       C  0.97571127  0.30196872  0.13284042     0.05620
C3038       C  0.98713711  0.28868707  0.11615372    -0.02930
Br3039     Br  0.97188950  0.27585062  0.08976633    -0.02630
H3040       H  0.02005462  0.27828124  0.10345618     0.09530
H3041       H  0.97836817  0.32214526  0.16392654     0.07550
Br3042     Br  0.02762401  0.32552477  0.17629846    -0.03050
C3043       C  0.23373471  0.21652281  0.09426682    -0.09690
C3044       C  0.22770178  0.19330514  0.09891920     0.06510
C3045       C  0.20436141  0.18817828  0.10392628    -0.03460
C3046       C  0.18792304  0.20628585  0.10521076    -0.07910
C3047       C  0.19446026  0.22967620  0.10203268     0.05620
C3048       C  0.21747291  0.23452630  0.09575593    -0.02930
Br3049     Br  0.22776821  0.26569986  0.08973430    -0.02630
H3050       H  0.25159295  0.22088729  0.09066840     0.09530
H3051       H  0.17039184  0.20224116  0.11036010     0.07550
Br3052     Br  0.19476250  0.15738364  0.11227489    -0.03050
C3053       C  0.98697967  0.11827451  0.28873808    -0.09690
C3054       C  0.97706764  0.13239986  0.30555280     0.06510
C3055       C  0.99073480  0.14385658  0.32182179    -0.03460
C3056       C  0.01434533  0.13995683  0.32185346    -0.07910
C3057       C  0.02403983  0.12476606  0.30581333     0.05620
C3058       C  0.01045502  0.11409545  0.28893209    -0.02930
Br3059     Br  0.02224875  0.09115981  0.26801945    -0.02630
H3060       H  0.97625175  0.10896870  0.27659240     0.09530
H3061       H  0.02506632  0.14833053  0.33464779     0.07550
Br3062     Br  0.97782304  0.16441899  0.34434767    -0.03050
C3063       C  0.12239021  0.21146283  0.19650431    -0.09690
C3064       C  0.10379238  0.22685020  0.19377040     0.06510
C3065       C  0.08389097  0.22363330  0.20733400    -0.03460
C3066       C  0.08356389  0.20638893  0.22450041    -0.07910
C3067       C  0.10282341  0.19198327  0.22818344     0.05620
C3068       C  0.12197458  0.19408096  0.21334085    -0.02930
Br3069     Br  0.14872708  0.17457452  0.21640248    -0.02630
H3070       H  0.13780269  0.21367705  0.18618548     0.09530
H3071       H  0.06883709  0.20523649  0.23589875     0.07550
Br3072     Br  0.05777867  0.24389593  0.20441187    -0.03050
C3073       C  0.23927823  0.10797385  0.22036242    -0.09690
C3074       C  0.23293443  0.10753922  0.19722731     0.06510
C3075       C  0.20925909  0.10491749  0.19169642    -0.03460
C3076       C  0.19246172  0.10462004  0.20922473    -0.07910
C3077       C  0.19887330  0.10672228  0.23233163     0.05620
C3078       C  0.22265395  0.10720999  0.23776836    -0.02930
Br3079     Br  0.23356663  0.10693184  0.26882870    -0.02630
H3080       H  0.25735255  0.10945772  0.22496185     0.09530
H3081       H  0.17432517  0.10434027  0.20468474     0.07550
Br3082     Br  0.19859062  0.10439473  0.16063534    -0.03050
C3083       C  0.48801658  0.18018351  0.35001503    -0.09690
C3084       C  0.47623230  0.19688151  0.36291678     0.06510
C3085       C  0.48805436  0.21578306  0.37282811    -0.03460
C3086       C  0.51189588  0.21630664  0.37154872    -0.07910
C3087       C  0.52372577  0.19789416  0.36126516     0.05620
C3088       C  0.51189757  0.18054345  0.34918604    -0.02930
Br3089     Br  0.52763455  0.15628785  0.33284197    -0.02630
H3090       H  0.47874611  0.16594817  0.34200769     0.09530
H3091       H  0.52119994  0.22963734  0.38090782     0.07550
Br3092     Br  0.47357635  0.23873062  0.39205732    -0.03050
C3093       C  0.25523029  0.16974243  0.35573948    -0.09690
C3094       C  0.26652873  0.15355624  0.36981203     0.06510
C3095       C  0.26045317  0.12982806  0.36856712    -0.03460
C3096       C  0.24512729  0.12254744  0.35194715    -0.07910
C3097       C  0.23408857  0.13877959  0.33801835     0.05620
C3098       C  0.23984140  0.16249775  0.33928692    -0.02930
Br3099     Br  0.22619053  0.18639581  0.32055073    -0.02630
H3100       H  0.25904259  0.18812737  0.35649383     0.09530
H3101       H  0.23986133  0.10447741  0.35153969     0.07550
Br3102     Br  0.27159282  0.10663744  0.38949776    -0.03050
C3103       C  0.36776111  0.16759934  0.25611591    -0.09690
C3104       C  0.36288193  0.15022487  0.27206240     0.06510
C3105       C  0.35239242  0.12900137  0.26541348    -0.03460
C3106       C  0.34479950  0.12677336  0.24320713    -0.07910
C3107       C  0.34794559  0.14506383  0.22808920     0.05620
C3108       C  0.35993554  0.16533525  0.23408041    -0.02930
Br3109     Br  0.36430807  0.19110250  0.21347514    -0.02630
H3110       H  0.37610891  0.18368336  0.26120764     0.09530
H3111       H  0.33618882  0.11093932  0.23775965     0.07550
Br3112     Br  0.34575305  0.10310258  0.28529362    -0.03050
C3113       C  0.48898499  0.34902123  0.19424087    -0.09690
C3114       C  0.47801271  0.36959315  0.20082646     0.06510
C3115       C  0.49060365  0.38928237  0.20748712    -0.03460
C3116       C  0.51441910  0.38852606  0.20647117    -0.07910
C3117       C  0.52536765  0.36850794  0.19842505     0.05620
C3118       C  0.51288697  0.34839468  0.19293316    -0.02930
Br3119     Br  0.52774252  0.32052295  0.18245000    -0.02630
H3120       H  0.47896896  0.33403048  0.18888835     0.09530
H3121       H  0.52433194  0.40402400  0.21046250     0.07550
Br3122     Br  0.47602246  0.41822151  0.21538686    -0.03050
C3123       C  0.33873066  0.26772377  0.14267054    -0.09690
C3124       C  0.36296548  0.26777150  0.14344635     0.06510
C3125       C  0.37564029  0.25530743  0.12711415    -0.03460
C3126       C  0.36397287  0.24122584  0.11172271    -0.07910
C3127       C  0.34012454  0.23747354  0.11449273     0.05620
C3128       C  0.32722307  0.25343252  0.12743454    -0.02930
Br3129     Br  0.29441074  0.25720589  0.12449187    -0.02630
H3130       H  0.32876451  0.27982627  0.15292932     0.09530
H3131       H  0.37401883  0.23009319  0.10051250     0.07550
Br3132     Br  0.40876949  0.25671642  0.12575252    -0.03050
C3133       C  0.24559359  0.34026096  0.11968188    -0.09690
C3134       C  0.22820228  0.34536503  0.13508543     0.06510
C3135       C  0.23252562  0.35567272  0.15645580    -0.03460
C3136       C  0.25459406  0.36261221  0.16140875    -0.07910
C3137       C  0.27221107  0.35788662  0.14592159     0.05620
C3138       C  0.26799229  0.34570531  0.12522853    -0.02930
Br3139     Br  0.29110350  0.33281211  0.10514463    -0.02630
H3140       H  0.24179287  0.33122188  0.10381653     0.09530
H3141       H  0.25820643  0.37081133  0.17775046     0.07550
Br3142     Br  0.20959365  0.35905508  0.18006444    -0.03050
C3143       C  0.37218022  0.29961985  0.28344724    -0.09690
C3144       C  0.39207463  0.30212317  0.26993513     0.06510
C3145       C  0.41181965  0.28896066  0.27549295    -0.03460
C3146       C  0.41089787  0.27245701  0.29333995    -0.07910
C3147       C  0.39039909  0.26886731  0.30580144     0.05620
C3148       C  0.37128277  0.28339603  0.30132747    -0.02930
Br3149     Br  0.34347200  0.28186607  0.31923466    -0.02630
H3150       H  0.35695702  0.30984917  0.27959138     0.09530
H3151       H  0.42579517  0.26157950  0.29664649     0.07550
Br3152     Br  0.43964840  0.29170431  0.25789648    -0.03050
C3153       C  0.13333561  0.33222267  0.24736866    -0.09690
C3154       C  0.13662928  0.34807187  0.22965665     0.06510
C3155       C  0.15090438  0.36804128  0.23250360    -0.03460
C3156       C  0.16013625  0.37236300  0.25371429    -0.07910
C3157       C  0.15634698  0.35666829  0.27119112     0.05620
C3158       C  0.14364634  0.33609089  0.26813146    -0.02930
Br3159     Br  0.13988304  0.31284852  0.29158079    -0.02630
H3160       H  0.12336547  0.31644345  0.24477104     0.09530
H3161       H  0.17031606  0.38794924  0.25663842     0.07550
Br3162     Br  0.16092772  0.38938440  0.20902780    -0.03050
C3163       C  0.13144034  0.25783910  0.37694013    -0.09690
C3164       C  0.15170543  0.26680235  0.36714422     0.06510
C3165       C  0.15889830  0.25935513  0.34516765    -0.03460
C3166       C  0.14580954  0.24309723  0.33378191    -0.07910
C3167       C  0.12665159  0.23295160  0.34438726     0.05620
C3168       C  0.11839620  0.24160129  0.36523972    -0.02930
Br3169     Br  0.08978222  0.23122949  0.37834357    -0.02630
H3170       H  0.12507017  0.26453551  0.39311780     0.09530
H3171       H  0.15216032  0.23669319  0.31749847     0.07550
Br3172     Br  0.18602923  0.26981287  0.32888363    -0.03050
C3173       C  0.29264994  0.30959770  0.40037667    -0.09690
C3174       C  0.26947201  0.30225999  0.40163725     0.06510
C3175       C  0.26495580  0.27833739  0.40498692    -0.03460
C3176       C  0.28306467  0.26221718  0.40500504    -0.07910
C3177       C  0.30609589  0.26921829  0.40206209     0.05620
C3178       C  0.31091732  0.29329859  0.40050596    -0.02930
Br3179     Br  0.34166701  0.30462401  0.39555694    -0.02630
H3180       H  0.29650599  0.32782689  0.39757973     0.09530
H3181       H  0.27899552  0.24385010  0.40635614     0.07550
Br3182     Br  0.23418890  0.26641586  0.40902256    -0.03050
C3183       C  0.30822919  0.39184762  0.28695160    -0.09690
C3184       C  0.30097017  0.39092176  0.26394762     0.06510
C3185       C  0.27705537  0.39212786  0.25940622    -0.03460
C3186       C  0.26102157  0.39163650  0.27741228    -0.07910
C3187       C  0.26811796  0.39063398  0.30037226     0.05620
C3188       C  0.29204431  0.39179369  0.30510086    -0.02930
Br3189     Br  0.30355701  0.39079206  0.33584872    -0.02630
H3190       H  0.32649615  0.39115910  0.29088175     0.09530
H3191       H  0.24275477  0.39135006  0.27338206     0.07550
Br3192     Br  0.26521013  0.39473328  0.22882536    -0.03050
C3193       C  0.86142066  0.98813321  0.29015641    -0.09690
C3194       C  0.87931704  0.97750807  0.30229456     0.06510
C3195       C  0.89816596  0.99036471  0.31054114    -0.03460
C3196       C  0.89740088  0.01421561  0.30899112    -0.07910
C3197       C  0.87818159  0.02506630  0.29930320     0.05620
C3198       C  0.86072522  0.01218463  0.28858447    -0.02930
Br3199     Br  0.83464468  0.02650895  0.27409092    -0.02630
H3200       H  0.84732045  0.97786442  0.28328656     0.09530
H3201       H  0.91132088  0.02438132  0.31637710     0.07550
Br3202     Br  0.92507720  0.97665108  0.32435653    -0.03050
C3203       C  0.80414701  0.92309173  0.41799331    -0.09690
C3204       C  0.82424766  0.93288416  0.40812494     0.06510
C3205       C  0.82917669  0.95634261  0.41422113    -0.03460
C3206       C  0.81449262  0.96882483  0.42958994    -0.07910
C3207       C  0.79436441  0.95869876  0.43912699     0.05620
C3208       C  0.78968605  0.93538889  0.43310536    -0.02930
Br3209     Br  0.76458099  0.91830012  0.44625614    -0.02630
H3210       H  0.79939232  0.90531647  0.41436860     0.09530
H3211       H  0.81887991  0.98656094  0.43410699     0.07550
Br3212     Br  0.85559087  0.97234337  0.40224273    -0.03050
C3213       C  0.90153422  0.78059596  0.23704388    -0.09690
C3214       C  0.90069247  0.80413481  0.23076004     0.06510
C3215       C  0.90104707  0.80981481  0.20720498    -0.03460
C3216       C  0.90038181  0.79196362  0.19061229    -0.07910
C3217       C  0.89926627  0.76842378  0.19714197     0.05620
C3218       C  0.90102889  0.76289553  0.22061060    -0.02930
Br3219     Br  0.90224313  0.73132332  0.23136265    -0.02630
H3220       H  0.90153091  0.77588239  0.25501050     0.09530
H3221       H  0.89897245  0.79655895  0.17268532     0.07550
Br3222     Br  0.89941574  0.84138802  0.19674110    -0.03050
C3223       C  0.67984983  0.01452984  0.15105303    -0.09690
C3224       C  0.69890145  0.02419875  0.13972492     0.06510
C3225       C  0.71740589  0.01002955  0.13270575    -0.03460
C3226       C  0.71518429  0.98613011  0.13467957    -0.07910
C3227       C  0.69456996  0.97639717  0.14280775     0.05620
C3228       C  0.67758267  0.99056900  0.15275289    -0.02930
Br3229     Br  0.65071804  0.97825621  0.16781033    -0.02630
H3230       H  0.66595520  0.02557161  0.15712354     0.09530
H3231       H  0.72853233  0.97520074  0.12735869     0.07550
Br3232     Br  0.74398282  0.02124301  0.11630291    -0.03050
C3233       C  0.77920547  0.79757981  0.08373981    -0.09690
C3234       C  0.77466905  0.81109079  0.10332546     0.06510
C3235       C  0.78846972  0.80757099  0.12294196    -0.03460
C3236       C  0.80504676  0.78978442  0.12334977    -0.07910
C3237       C  0.80857731  0.77524108  0.10434858     0.05620
C3238       C  0.79605613  0.77981169  0.08413232    -0.02930
Br3239     Br  0.79981528  0.76065915  0.05753537    -0.02630
H3240       H  0.76864176  0.79981347  0.06860604     0.09530
H3241       H  0.81452038  0.78659541  0.13902751     0.07550
Br3242     Br  0.78451918  0.82591745  0.15016722    -0.03050
C3243       C  0.76267862  0.89419251  0.21948607    -0.09690
C3244       C  0.76861718  0.89462912  0.19621120     0.06510
C3245       C  0.79222277  0.89771057  0.19041906    -0.03460
C3246       C  0.80926607  0.89878141  0.20775721    -0.07910
C3247       C  0.80327312  0.89699921  0.23103954     0.05620
C3248       C  0.77953867  0.89570803  0.23668195    -0.02930
Br3249     Br  0.76897430  0.89629151  0.26780656    -0.02630
H3250       H  0.74470924  0.89234951  0.22438737     0.09530
H3251       H  0.82732486  0.89954930  0.20294723     0.07550
Br3252     Br  0.80254080  0.89794595  0.15922914    -0.03050
C3253       C  0.64633850  0.51139713  0.18071942    -0.09690
C3254       C  0.63145755  0.52132984  0.19682087     0.06510
C3255       C  0.62236481  0.50808354  0.21491224    -0.03460
C3256       C  0.62586587  0.48427566  0.21482060    -0.07910
C3257       C  0.63794423  0.47395897  0.19673153     0.05620
C3258       C  0.64984321  0.48759702  0.18072656    -0.02930
Br3259     Br  0.66982828  0.47440434  0.15801489    -0.02630
H3260       H  0.65410066  0.52194353  0.16737968     0.09530
H3261       H  0.61691645  0.47367929  0.22736566     0.07550
Br3262     Br  0.60173363  0.52058424  0.23759111    -0.03050
C3263       C  0.67084559  0.75026220  0.13316044    -0.09690
C3264       C  0.65387743  0.76597038  0.12609141     0.06510
C3265       C  0.63033922  0.76149242  0.13124623    -0.03460
C3266       C  0.62484956  0.74394095  0.14629106    -0.07910
C3267       C  0.64213306  0.72997267  0.15508591     0.05620
C3268       C  0.66521955  0.73247658  0.14796065    -0.02930
Br3269     Br  0.68947011  0.71129968  0.15649707    -0.02630
H3270       H  0.68875832  0.75255212  0.12833354     0.09530
H3271       H  0.60685920  0.74026881  0.15011865     0.07550
Br3272     Br  0.60434921  0.77764595  0.11869781    -0.03050
C3273       C  0.74703399  0.63871810  0.16845903    -0.09690
C3274       C  0.73255392  0.62747020  0.15281200     0.06510
C3275       C  0.73819794  0.62742352  0.12933239    -0.03460
C3276       C  0.75584869  0.64147090  0.12157514    -0.07910
C3277       C  0.76864539  0.65457241  0.13704675     0.05620
C3278       C  0.76478405  0.65263265  0.16078991    -0.02930
Br3279     Br  0.78366047  0.66712614  0.18390167    -0.02630
H3280       H  0.74386102  0.63801722  0.18668369     0.09530
H3281       H  0.76041216  0.64127958  0.10355359     0.07550
Br3282     Br  0.72293546  0.60865653  0.10694350    -0.03050
C3283       C  0.73969898  0.83172075  0.34507549    -0.09690
C3284       C  0.73405168  0.84007139  0.36689654     0.06510
C3285       C  0.74393821  0.86066703  0.37510023    -0.03460
C3286       C  0.75925399  0.87272971  0.36132259    -0.07910
C3287       C  0.76553283  0.86385632  0.33978992     0.05620
C3288       C  0.75437058  0.84394785  0.33103001    -0.02930
Br3289     Br  0.75721040  0.83189212  0.30039685    -0.02630
H3290       H  0.73104526  0.81669930  0.33785630     0.09530
H3291       H  0.76794625  0.88789416  0.36827847     0.07550
Br3292     Br  0.73636076  0.87300768  0.40471455    -0.03050
C3293       C  0.66674090  0.86215154  0.24484047    -0.09690
C3294       C  0.65109970  0.85855556  0.22713854     0.06510
C3295       C  0.63072787  0.84509952  0.23034128    -0.03460
C3296       C  0.62660086  0.83562811  0.25150814    -0.07910
C3297       C  0.64260726  0.83883182  0.26870715     0.05620
C3298       C  0.66298576  0.85176580  0.26558231    -0.02930
Br3299     Br  0.68638462  0.85553726  0.28873532    -0.02630
H3300       H  0.68248258  0.87204340  0.24215047     0.09530
H3301       H  0.61091149  0.82577310  0.25461991     0.07550
Br3302     Br  0.60843495  0.83674340  0.20721841    -0.03050
C3303       C  0.66938671  0.91541949  0.45316511    -0.09690
C3304       C  0.67462485  0.91237463  0.42979543     0.06510
C3305       C  0.69393575  0.92554164  0.42135412    -0.03460
C3306       C  0.70817166  0.93852819  0.43624743    -0.07910
C3307       C  0.70331836  0.94099365  0.45958722     0.05620
C3308       C  0.68280562  0.93010900  0.46756964    -0.02930
Br3309     Br  0.67097259  0.93582958  0.49730455    -0.02630
H3310       H  0.65436312  0.90676855  0.46024388     0.09530
H3311       H  0.72270809  0.94800413  0.42914969     0.07550
Br3312     Br  0.70119135  0.93051415  0.38963193    -0.03050
C3313       C  0.62710992  0.71156079  0.30383182    -0.09690
C3314       C  0.60742740  0.72538138  0.30735378     0.06510
C3315       C  0.58759049  0.72086368  0.29403583    -0.03460
C3316       C  0.58825558  0.70376613  0.27664657    -0.07910
C3317       C  0.60856165  0.69104638  0.27225599     0.05620
C3318       C  0.62776818  0.69451818  0.28670390    -0.02930
Br3319     Br  0.65553723  0.67648105  0.28374489    -0.02630
H3320       H  0.64244641  0.71456055  0.31404339     0.09530
H3321       H  0.57331796  0.70132215  0.26575319     0.07550
Br3322     Br  0.56014465  0.73915073  0.29747386    -0.03050
C3323       C  0.78259997  0.51276776  0.36602951    -0.09690
C3324       C  0.80319446  0.52379572  0.35954630     0.06510
C3325       C  0.82189581  0.51065015  0.35144349    -0.03460
C3326       C  0.82098881  0.48671611  0.35310698    -0.07910
C3327       C  0.80201283  0.47596910  0.36346796     0.05620
C3328       C  0.78190091  0.48876672  0.36831985    -0.02930
Br3329     Br  0.75450352  0.47548854  0.38159857    -0.02630
H3330       H  0.76788748  0.52279190  0.37183638     0.09530
H3331       H  0.83603957  0.47668178  0.34818368     0.07550
Br3332     Br  0.84989039  0.52406765  0.34003971    -0.03050
C3333       C  0.83607005  0.65632210  0.23415251    -0.09690
C3334       C  0.85994962  0.65561896  0.23039184     0.06510
C3335       C  0.87409960  0.64096242  0.24316203    -0.03460
C3336       C  0.86430260  0.62749352  0.26008365    -0.07910
C3337       C  0.84120471  0.63126515  0.26646291     0.05620
C3338       C  0.82645228  0.64389071  0.25198554    -0.02930
Br3339     Br  0.79344745  0.64487367  0.25539414    -0.02630
H3340       H  0.82480212  0.66587207  0.22271170     0.09530
H3341       H  0.87552832  0.61636885  0.27003744     0.07550
Br3342     Br  0.90691645  0.64008602  0.23876191    -0.03050
C3343       C  0.87211014  0.75746597  0.36466754    -0.09690
C3344       C  0.85939502  0.76605801  0.34608581     0.06510
C3345       C  0.83562361  0.76079291  0.34411223    -0.03460
C3346       C  0.82576022  0.74562385  0.35956831    -0.07910
C3347       C  0.83961006  0.73421185  0.37559859     0.05620
C3348       C  0.86186734  0.74253834  0.38021027    -0.02930
Br3349     Br  0.87891335  0.73312970  0.40684880    -0.02630
H3350       H  0.88948952  0.76370528  0.36795751     0.09530
H3351       H  0.80792177  0.74049310  0.35700041     0.07550
Br3352     Br  0.81492650  0.77390659  0.32176864    -0.03050
C3353       C  0.73673005  0.60127426  0.27963756    -0.09690
C3354       C  0.73048540  0.60297293  0.30279933     0.06510
C3355       C  0.70680314  0.60088792  0.30851177    -0.03460
C3356       C  0.68994931  0.59878602  0.29106491    -0.07910
C3357       C  0.69628670  0.59867365  0.26777594     0.05620
C3358       C  0.72009119  0.59896119  0.26236020    -0.02930
Br3359     Br  0.73102854  0.59669712  0.23138976    -0.02630
H3360       H  0.75477415  0.60249302  0.27481931     0.09530
H3361       H  0.67182423  0.59885640  0.29567239     0.07550
Br3362     Br  0.69637402  0.60359379  0.33953773    -0.03050
C3363       C  0.70763996  0.68818834  0.40171084    -0.09690
C3364       C  0.73077479  0.69579780  0.40104192     0.06510
C3365       C  0.73521302  0.71983616  0.40354272    -0.03460
C3366       C  0.71693678  0.73573750  0.40456853    -0.07910
C3367       C  0.69381394  0.72845991  0.40328140     0.05620
C3368       C  0.68920567  0.70430458  0.40271130    -0.02930
Br3369     Br  0.65830632  0.69261642  0.40026637    -0.02630
H3370       H  0.70382046  0.66984866  0.39967446     0.09530
H3371       H  0.72089094  0.75417617  0.40505579     0.07550
Br3372     Br  0.76604085  0.73224527  0.40478728    -0.03050
C3373       C  0.32269946  0.98831470  0.14783046    -0.09690
C3374       C  0.30362954  0.97952270  0.13591801     0.06510
C3375       C  0.28455626  0.99379706  0.13102365    -0.03460
C3376       C  0.28607852  0.01729211  0.13578986    -0.07910
C3377       C  0.30667825  0.02665623  0.14431894     0.05620
C3378       C  0.32427727  0.01195914  0.15229060    -0.02930
Br3379     Br  0.35107960  0.02330848  0.16815008    -0.02630
H3380       H  0.33692573  0.97700968  0.15248123     0.09530
H3381       H  0.27223934  0.02852443  0.13000471     0.07550
Br3382     Br  0.25802140  0.98379059  0.11382318    -0.03050
C3383       C  0.14918389  0.98705620  0.31792369    -0.09690
C3384       C  0.13244107  0.97654145  0.30415929     0.06510
C3385       C  0.12026564  0.98927689  0.28760245    -0.03460
C3386       C  0.12399074  0.01296445  0.28610308    -0.07910
C3387       C  0.13906858  0.02381367  0.30142978     0.05620
C3388       C  0.15256319  0.01085742  0.31664411    -0.02930
Br3389     Br  0.17440470  0.02525111  0.33688011    -0.02630
H3390       H  0.15873407  0.97695056  0.33039394     0.09530
H3391       H  0.11324577  0.02318478  0.27472384     0.07550
Br3392     Br  0.09554147  0.97628796  0.26968078    -0.03050
C3393       C  0.01336746  0.87377489  0.28862864    -0.09690
C3394       C  0.02411781  0.86389646  0.30774620     0.06510
C3395       C  0.01103925  0.85215334  0.32437212    -0.03460
C3396       C  0.98717024  0.85350668  0.32340624    -0.07910
C3397       C  0.97646167  0.86618726  0.30594079     0.05620
C3398       C  0.98949275  0.87514098  0.28761452    -0.02930
Br3399     Br  0.97636705  0.89264244  0.26279613    -0.02630
H3400       H  0.02348927  0.88245501  0.27554658     0.09530
H3401       H  0.97700632  0.84577226  0.33701775     0.07550
Br3402     Br  0.02470651  0.83465383  0.34888011    -0.03050
C3403       C  0.23630327  0.89943373  0.21996978    -0.09690
C3404       C  0.23082081  0.89945493  0.19653662     0.06510
C3405       C  0.20720364  0.90125200  0.19039921    -0.03460
C3406       C  0.18982485  0.90138052  0.20753153    -0.07910
C3407       C  0.19549901  0.89973063  0.23092748     0.05620
C3408       C  0.21912662  0.89966020  0.23692477    -0.02930
Br3409     Br  0.22907781  0.89954114  0.26827574    -0.02630
H3410       H  0.25422194  0.89846360  0.22522683     0.09530
H3411       H  0.17183380  0.90122570  0.20246536     0.07550
Br3412     Br  0.19752815  0.90098285  0.15903820    -0.03050
C3413       C  0.01266976  0.68048171  0.14626449    -0.09690
C3414       C  0.02383166  0.69682234  0.13236030     0.06510
C3415       C  0.01153811  0.71523024  0.12227411    -0.03460
C3416       C  0.98780077  0.71584194  0.12471908    -0.07910
C3417       C  0.97644779  0.69798484  0.13645129     0.05620
C3418       C  0.98885230  0.68094318  0.14835838    -0.02930
Br3419     Br  0.97392377  0.65744286  0.16649091    -0.02630
H3420       H  0.02234429  0.66664273  0.15443085     0.09530
H3421       H  0.97808775  0.72887009  0.11539461     0.07550
Br3422     Br  0.02525089  0.73740519  0.10166744    -0.03050
C3423       C  0.21811562  0.76557814  0.09965994    -0.09690
C3424       C  0.19486417  0.77192807  0.10207859     0.06510
C3425       C  0.18931167  0.79587068  0.10291491    -0.03460
C3426       C  0.20706614  0.81275589  0.10288951    -0.07910
C3427       C  0.23045262  0.80614558  0.10215183     0.05620
C3428       C  0.23574113  0.78230383  0.09949879    -0.02930
Br3429     Br  0.26693993  0.77145899  0.09606124    -0.02630
H3430       H  0.22268969  0.74733060  0.09873384     0.09530
H3431       H  0.20263137  0.83092112  0.10514706     0.07550
Br3432     Br  0.15813307  0.80627925  0.10702297    -0.03050
C3433       C  0.12180110  0.79037119  0.19374413    -0.09690
C3434       C  0.10287462  0.77535317  0.19102392     0.06510
C3435       C  0.08312621  0.77886046  0.20474446    -0.03460
C3436       C  0.08325127  0.79608414  0.22196892    -0.07910
C3437       C  0.10290255  0.80999653  0.22566360     0.05620
C3438       C  0.12189860  0.80760366  0.21069178    -0.02930
Br3439     Br  0.14893423  0.82685600  0.21330290    -0.02630
H3440       H  0.13707457  0.78800392  0.18325811     0.09530
H3441       H  0.06858600  0.79756051  0.23340466     0.07550
Br3442     Br  0.05670867  0.75892320  0.20210683    -0.03050
C3443       C  0.48709278  0.81859480  0.35166723    -0.09690
C3444       C  0.47710344  0.80175397  0.36581654     0.06510
C3445       C  0.49073770  0.78494509  0.37681880    -0.03460
C3446       C  0.51451162  0.78637155  0.37482759    -0.07910
C3447       C  0.52458949  0.80467477  0.36256513     0.05620
C3448       C  0.51090720  0.82010327  0.34986882    -0.02930
Br3449     Br  0.52378484  0.84372027  0.33049599    -0.02630
H3450       H  0.47638597  0.83128160  0.34296173     0.09530
H3451       H  0.52510306  0.77448636  0.38467470     0.07550
Br3452     Br  0.47846419  0.76237324  0.39786384    -0.03050
C3453       C  0.37350520  0.84027539  0.25462001    -0.09690
C3454       C  0.35857346  0.84720857  0.27178888     0.06510
C3455       C  0.33891535  0.86078644  0.26749205    -0.03460
C3456       C  0.33516196  0.86852951  0.24560366    -0.07910
C3457       C  0.35030417  0.86205170  0.22822453     0.05620
C3458       C  0.36934681  0.84718438  0.23249746    -0.02930
Br3459     Br  0.38922736  0.83342209  0.20978669    -0.02630
H3460       H  0.38821813  0.82926761  0.25845186     0.09530
H3461       H  0.32005419  0.87905602  0.24198009     0.07550
Br3462     Br  0.31621955  0.86833291  0.29042902    -0.03050
C3463       C  0.26053075  0.86981802  0.37026643    -0.09690
C3464       C  0.26640531  0.84609838  0.37020149     0.06510
C3465       C  0.25344619  0.83030645  0.35690029    -0.03460
C3466       C  0.23778160  0.83891331  0.34128403    -0.07910
C3467       C  0.23343806  0.86280817  0.34010201     0.05620
C3468       C  0.24466649  0.87830473  0.35475250    -0.02930
Br3469     Br  0.23822220  0.91104849  0.35434635    -0.02630
H3470       H  0.26929318  0.88211738  0.38127048     0.09530
H3471       H  0.22739072  0.82670758  0.33155182     0.07550
Br3472     Br  0.25530199  0.79695623  0.35967372    -0.03050
C3473       C  0.35211331  0.51017028  0.20501913    -0.09690
C3474       C  0.37235053  0.52205429  0.19923619     0.06510
C3475       C  0.39344404  0.51038397  0.19650984    -0.03460
C3476       C  0.39353872  0.48647146  0.19718932    -0.07910
C3477       C  0.37292121  0.47443589  0.20071310     0.05620
C3478       C  0.35230004  0.48605023  0.20580683    -0.02930
Br3479     Br  0.32395139  0.46972761  0.21151148    -0.02630
H3480       H  0.33606375  0.51952084  0.20756098     0.09530
H3481       H  0.40950341  0.47719334  0.19387846     0.07550
Br3482     Br  0.42232426  0.52603236  0.19099726    -0.03050
C3483       C  0.48597835  0.64351398  0.18268582    -0.09690
C3484       C  0.47645804  0.63036609  0.20048114     0.06510
C3485       C  0.49025449  0.62249775  0.21866217    -0.03460
C3486       C  0.51394701  0.62561382  0.21732595    -0.07910
C3487       C  0.52370723  0.63590180  0.19786978     0.05620
C3488       C  0.50965495  0.64650086  0.18131974    -0.02930
Br3489     Br  0.52181201  0.66395318  0.15597965    -0.02630
H3490       H  0.47510506  0.65024733  0.16911525     0.09530
H3491       H  0.52480481  0.61762166  0.23021642     0.07550
Br3492     Br  0.47860783  0.60382462  0.24340171    -0.03050
C3493       C  0.36084524  0.75006304  0.16410975    -0.09690
C3494       C  0.36033783  0.73095240  0.14959821     0.06510
C3495       C  0.34765734  0.73150776  0.12868489    -0.03460
C3496       C  0.33906342  0.75245136  0.12127589    -0.07910
C3497       C  0.34094587  0.77163039  0.13532557     0.05620
C3498       C  0.35027794  0.77026767  0.15752486    -0.02930
Br3499     Br  0.34896621  0.79500310  0.17964341    -0.02630
H3500       H  0.36897265  0.74905217  0.18081042     0.09530
H3501       H  0.33057577  0.75375661  0.10477652     0.07550
Br3502     Br  0.33841752  0.70521015  0.11025848    -0.03050
C3503       C  0.26912541  0.66607723  0.14146631    -0.09690
C3504       C  0.27113758  0.64238370  0.14653680     0.06510
C3505       C  0.25568430  0.62615746  0.13760264    -0.03460
C3506       C  0.23648632  0.63420359  0.12611071    -0.07910
C3507       C  0.23218913  0.65828472  0.12498705     0.05620
C3508       C  0.24996034  0.67410973  0.12991321    -0.02930
Br3509     Br  0.24990368  0.70601274  0.12028422    -0.02630
H3510       H  0.28282023  0.67814933  0.14593038     0.09530
H3511       H  0.22356836  0.62164116  0.12082924     0.07550
Br3512     Br  0.25940078  0.59326025  0.14212127    -0.03050
C3513       C  0.41094343  0.70561002  0.27765565    -0.09690
C3514       C  0.39075339  0.69317841  0.27210089     0.06510
C3515       C  0.37058217  0.69739426  0.28505540    -0.03460
C3516       C  0.37023095  0.71508044  0.30156588    -0.07910
C3517       C  0.38988791  0.72864029  0.30606178     0.05620
C3518       C  0.41067013  0.72309810  0.29465471    -0.02930
Br3519     Br  0.43839259  0.74045176  0.30021941    -0.02630
H3520       H  0.42657880  0.70269652  0.26787158     0.09530
H3521       H  0.35421547  0.71876407  0.31046765     0.07550
Br3522     Br  0.34267010  0.67992116  0.28037946    -0.03050
C3523       C  0.19805409  0.51241631  0.34710123    -0.09690
C3524       C  0.19656258  0.52288551  0.36862357     0.06510
C3525       C  0.19910292  0.51005610  0.38884252    -0.03460
C3526       C  0.20144963  0.48626189  0.38731835    -0.07910
C3527       C  0.20102391  0.47551759  0.36589111     0.05620
C3528       C  0.20023797  0.48843747  0.34563011    -0.02930
Br3529     Br  0.20022428  0.47382897  0.31612217    -0.02630
H3530       H  0.19644229  0.52271117  0.33164163     0.09530
H3531       H  0.20203198  0.47596270  0.40286630     0.07550
Br3532     Br  0.19784478  0.52398099  0.41876115    -0.03050
C3533       C  0.13823572  0.74286507  0.37425299    -0.09690
C3534       C  0.15858088  0.73434706  0.36427630     0.06510
C3535       C  0.16557241  0.74223391  0.34239883    -0.03460
C3536       C  0.15162059  0.75750983  0.33077195    -0.07910
C3537       C  0.13188574  0.76670850  0.34113072     0.05620
C3538       C  0.12465183  0.75869878  0.36261280    -0.02930
Br3539     Br  0.09695717  0.76996678  0.37687654    -0.02630
H3540       H  0.13217811  0.73602953  0.39049886     0.09530
H3541       H  0.15765025  0.76386080  0.31436695     0.07550
Br3542     Br  0.19338428  0.73362079  0.32630328    -0.03050
C3543       C  0.13179308  0.63318854  0.26414172    -0.09690
C3544       C  0.15588658  0.63442261  0.26760235     0.06510
C3545       C  0.16996117  0.64507494  0.25102453    -0.03460
C3546       C  0.15960593  0.65795837  0.23406828    -0.07910
C3547       C  0.13551442  0.65884837  0.23224709     0.05620
C3548       C  0.12151925  0.64565791  0.24667148    -0.02930
Br3549     Br  0.08855222  0.64469679  0.24322262    -0.02630
H3550       H  0.12069729  0.62411362  0.27614978     0.09530
H3551       H  0.17049048  0.66599293  0.22116387     0.07550
Br3552     Br  0.20277594  0.64141663  0.24844094    -0.03050
C3553       C  0.29218010  0.60481618  0.30835817    -0.09690
C3554       C  0.26862016  0.60189397  0.30326229     0.06510
C3555       C  0.26222205  0.59864112  0.28021273    -0.03460
C3556       C  0.27870624  0.60046751  0.26264958    -0.07910
C3557       C  0.30207924  0.60476074  0.26750860     0.05620
C3558       C  0.30888852  0.60608305  0.29074860    -0.02930
Br3559     Br  0.34028056  0.61216197  0.29933030    -0.02630
H3560       H  0.29744672  0.60756062  0.32594156     0.09530
H3561       H  0.27313149  0.59893372  0.24501194     0.07550
Br3562     Br  0.23097997  0.59136469  0.27204627    -0.03050
C3563       C  0.29373988  0.68861657  0.40049623    -0.09690
C3564       C  0.27016045  0.69453388  0.40111178     0.06510
C3565       C  0.26413623  0.71819643  0.40323175    -0.03460
C3566       C  0.28120982  0.73543229  0.40286065    -0.07910
C3567       C  0.30467787  0.72982338  0.40039727     0.05620
C3568       C  0.31099157  0.70604340  0.40006783    -0.02930
Br3569     Br  0.34244743  0.69645260  0.39611482    -0.02630
H3570       H  0.29870085  0.67054798  0.39859559     0.09530
H3571       H  0.27595921  0.75352387  0.40340269     0.07550
Br3572     Br  0.23257479  0.72808536  0.40581515    -0.03050
C3573       C  0.28497207  0.88231054  0.98524944    -0.09690
C3574       C  0.30162619  0.86782194  0.97540995     0.06510
C3575       C  0.31542309  0.85333422  0.98894710    -0.03460
C3576       C  0.31419237  0.85544425  0.01255791    -0.07910
C3577       C  0.29907780  0.87160737  0.02235973     0.05620
C3578       C  0.28371125  0.88447930  0.00880026    -0.02930
Br3579     Br  0.26353445  0.90791583  0.02106782    -0.02630
H3580       H  0.27437943  0.89349203  0.97463264     0.09530
H3581       H  0.32570050  0.84529079  0.02323022     0.07550
Br3582     Br  0.33622617  0.83101747  0.97576109    -0.03050
C3583       C  0.10527826  0.68873283  0.98818534    -0.09690
C3584       C  0.12575092  0.69504954  0.97720879     0.06510
C3585       C  0.14420436  0.70493336  0.98927582    -0.03460
C3586       C  0.14296340  0.70575948  0.01297998    -0.07910
C3587       C  0.12334510  0.69709503  0.02402226     0.05620
C3588       C  0.10383909  0.68990618  0.01166480    -0.02930
Br3589     Br  0.07522009  0.68086418  0.02587485    -0.02630
H3590       H  0.09067635  0.68218171  0.97850817     0.09530
H3591       H  0.15773587  0.71168787  0.02277080     0.07550
Br3592     Br  0.17182055  0.71540686  0.97428413    -0.03050
C3593       C  0.19009089  0.79080741  0.90534780    -0.09690
C3594       C  0.19699480  0.76748720  0.90279537     0.06510
C3595       C  0.22078595  0.76240993  0.90192612    -0.03460
C3596       C  0.23700005  0.78040934  0.90146642    -0.07910
C3597       C  0.23016412  0.80380726  0.90198754     0.05620
C3598       C  0.20646888  0.80899097  0.90487334    -0.02930
Br3599     Br  0.19519138  0.84034943  0.90518435    -0.02630
H3600       H  0.17186816  0.79503077  0.90591460     0.09530
H3601       H  0.25511937  0.77607525  0.89953714     0.07550
Br3602     Br  0.23218487  0.73109327  0.90051525    -0.03050
C3603       C  0.10080991  0.81041340  0.79233704    -0.09690
C3604       C  0.10217103  0.80271384  0.76946714     0.06510
C3605       C  0.10111322  0.77849212  0.76531360    -0.03460
C3606       C  0.10123888  0.76268108  0.78357794    -0.07910
C3607       C  0.10173734  0.77020644  0.80643011     0.05620
C3608       C  0.10053193  0.79439838  0.81074837    -0.02930
Br3609     Br  0.10108644  0.80651448  0.84130235    -0.02630
H3610       H  0.10147802  0.82888162  0.79598878     0.09530
H3611       H  0.10176155  0.74421058  0.77984279     0.07550
Br3612     Br  0.09947217  0.76572383  0.73494079    -0.03050
C3613       C  0.19087749  0.89700248  0.78985258    -0.09690
C3614       C  0.19842904  0.89588211  0.76693765     0.06510
C3615       C  0.22234738  0.89769442  0.76256151    -0.03460
C3616       C  0.23815744  0.89835981  0.78072139    -0.07910
C3617       C  0.23082205  0.89773822  0.80363700     0.05620
C3618       C  0.20682874  0.89784465  0.80813858    -0.02930
Br3619     Br  0.19501534  0.89626973  0.83877219    -0.02630
H3620       H  0.17260170  0.89569189  0.79363401     0.09530
H3621       H  0.25647666  0.89847646  0.77687439     0.07550
Br3622     Br  0.23452677  0.89939206  0.73201584    -0.03050
C3623       C  0.21577073  0.62041807  0.51248484    -0.09690
C3624       C  0.19931446  0.63463149  0.52301955     0.06510
C3625       C  0.18445447  0.64853233  0.50995432    -0.03460
C3626       C  0.18413086  0.64576193  0.48641259    -0.07910
C3627       C  0.19866914  0.62943892  0.47608900     0.05620
C3628       C  0.21542669  0.61753100  0.48892108    -0.02930
Br3629     Br  0.23523977  0.59418247  0.47593887    -0.02630
H3630       H  0.22713240  0.60962053  0.52269568     0.09530
H3631       H  0.17165824  0.65535316  0.47630870     0.07550
Br3632     Br  0.16339774  0.67021209  0.52366396    -0.03050
C3633       C  0.16319793  0.63439350  0.74619857    -0.09690
C3634       C  0.14801793  0.63742749  0.72798787     0.06510
C3635       C  0.12780714  0.65128150  0.73033208    -0.03460
C3636       C  0.12316621  0.66134004  0.75120203    -0.07910
C3637       C  0.13861889  0.65849009  0.76897536     0.05620
C3638       C  0.15902057  0.64545219  0.76658100    -0.02930
Br3639     Br  0.18199678  0.64254241  0.79021837    -0.02630
H3640       H  0.17894738  0.62438819  0.74416452     0.09530
H3641       H  0.10752119  0.67142447  0.75361439     0.07550
Br3642     Br  0.10645507  0.65940711  0.70631236    -0.03050
C3643       C  0.12537199  0.73398861  0.63293981    -0.09690
C3644       C  0.14922831  0.73221496  0.62820181     0.06510
C3645       C  0.16407999  0.75076001  0.63330936    -0.03460
C3646       C  0.15577854  0.76867323  0.64665328    -0.07910
C3647       C  0.13255093  0.76890094  0.65352423     0.05620
C3648       C  0.11707444  0.75209363  0.64601560    -0.02930
Br3649     Br  0.08488574  0.75302280  0.65390310    -0.02630
H3650       H  0.11334643  0.72036153  0.62820663     0.09530
H3651       H  0.16710723  0.78316004  0.65066779     0.07550
Br3652     Br  0.19492001  0.75351915  0.62141474    -0.03050
C3653       C  0.36430013  0.73208697  0.87104570    -0.09690
C3654       C  0.37388556  0.73248788  0.84872633     0.06510
C3655       C  0.36906545  0.75105647  0.83401509    -0.03460
C3656       C  0.35236826  0.76685070  0.84038007    -0.07910
C3657       C  0.34201539  0.76553091  0.86208532     0.05620
C3658       C  0.34778172  0.74808841  0.87741761    -0.02930
Br3659     Br  0.33289248  0.74529854  0.90668866    -0.02630
H3660       H  0.36808658  0.71823840  0.88303716     0.09530
H3661       H  0.34893119  0.78153075  0.82927011     0.07550
Br3662     Br  0.38561221  0.75645143  0.80597529    -0.03050
C3663       C  0.25433730  0.62805974  0.84151331    -0.09690
C3664       C  0.27185507  0.64399296  0.84433965     0.06510
C3665       C  0.26940759  0.66430862  0.85744402    -0.03460
C3666       C  0.24896020  0.66798385  0.86862454    -0.07910
C3667       C  0.23074166  0.65254791  0.86528425     0.05620
C3668       C  0.23331764  0.63232191  0.85136703    -0.02930
Br3669     Br  0.20958947  0.61071484  0.84206814    -0.02630
H3670       H  0.25699002  0.61249512  0.83131261     0.09530
H3671       H  0.24676424  0.68368189  0.87867760     0.07550
Br3672     Br  0.29300252  0.68783622  0.85996050    -0.03050
C3673       C  0.30741436  0.60319038  0.70932947    -0.09690
C3674       C  0.30111512  0.60882067  0.73196294     0.06510
C3675       C  0.27743165  0.61168890  0.73688860    -0.03460
C3676       C  0.26093521  0.61057417  0.71933521    -0.07910
C3677       C  0.26717595  0.60642561  0.69640119     0.05620
C3678       C  0.29080290  0.60209613  0.69160208    -0.02930
Br3679     Br  0.30201926  0.59698938  0.66113563    -0.02630
H3680       H  0.32549519  0.60085562  0.70513947     0.09530
H3681       H  0.24296759  0.61355127  0.72364561     0.07550
Br3682     Br  0.26640908  0.61666676  0.76750293    -0.03050
C3683       C  0.35365329  0.79342894  0.51127477    -0.09690
C3684       C  0.37275458  0.80050959  0.52408745     0.06510
C3685       C  0.39431522  0.80455397  0.51370551    -0.03460
C3686       C  0.39579539  0.80408222  0.49021141    -0.07910
C3687       C  0.37624160  0.79909622  0.47727077     0.05620
C3688       C  0.35532723  0.79257319  0.48758887    -0.02930
Br3689     Br  0.32833295  0.78481686  0.47011954    -0.02630
H3690       H  0.33725622  0.78990037  0.51955446     0.09530
H3691       H  0.41204257  0.80837781  0.48196142     0.07550
Br3692     Br  0.42211398  0.81139956  0.53046500    -0.03050
C3693       C  0.25729574  0.84069921  0.63783621    -0.09690
C3694       C  0.27330300  0.85428026  0.64943195     0.06510
C3695       C  0.26689724  0.87368724  0.66258543    -0.03460
C3696       C  0.24398666  0.87974441  0.66336693    -0.07910
C3697       C  0.22793345  0.86609403  0.65188611     0.05620
C3698       C  0.23431190  0.84622176  0.63928785    -0.02930
Br3699     Br  0.21277058  0.82433323  0.62628418    -0.02630
H3700       H  0.26266496  0.82551762  0.62816166     0.09530
H3701       H  0.23849689  0.89417049  0.67403942     0.07550
Br3702     Br  0.28785189  0.89057569  0.68202096    -0.03050
C3703       C  0.36989887  0.83446121  0.74845103    -0.09690
C3704       C  0.37110431  0.85140346  0.73137945     0.06510
C3705       C  0.35721247  0.87192645  0.73290777    -0.03460
C3706       C  0.34357293  0.87511315  0.75198885    -0.07910
C3707       C  0.34240842  0.85791803  0.76842716     0.05620
C3708       C  0.35479914  0.83708004  0.76638296    -0.02930
Br3709     Br  0.35211680  0.81199956  0.78797154    -0.02630
H3710       H  0.37952599  0.81833737  0.74694341     0.09530
H3711       H  0.33404965  0.89120931  0.75423617     0.07550
Br3712     Br  0.35328403  0.89607007  0.71030413    -0.03050
C3713       C  0.29960119  0.71761383  0.63014459    -0.09690
C3714       C  0.30254634  0.73330719  0.61198908     0.06510
C3715       C  0.29004561  0.72954885  0.59157723    -0.03460
C3716       C  0.27377776  0.71128853  0.59023985    -0.07910
C3717       C  0.27006105  0.69632753  0.60893137     0.05620
C3718       C  0.28385770  0.69913153  0.62864607    -0.02930
Br3719     Br  0.28165675  0.67819382  0.65418837    -0.02630
H3720       H  0.30933984  0.71997423  0.64578191     0.09530
H3721       H  0.26322365  0.70952624  0.57503483     0.07550
Br3722     Br  0.29321540  0.75012600  0.56593641    -0.03050
C3723       C  0.41799723  0.72398277  0.70520612    -0.09690
C3724       C  0.39818599  0.72721747  0.69163524     0.06510
C3725       C  0.37939256  0.71185825  0.69470068    -0.03460
C3726       C  0.38002354  0.69475864  0.71187511    -0.07910
C3727       C  0.39928152  0.69231861  0.72629399     0.05620
C3728       C  0.41866082  0.70667695  0.72236240    -0.02930
Br3729     Br  0.44542026  0.70470663  0.74154052    -0.02630
H3730       H  0.43245609  0.73582633  0.70341360     0.09530
H3731       H  0.36489064  0.68401967  0.71471457     0.07550
Br3732     Br  0.35177071  0.71456208  0.67677642    -0.03050
C3733       C  0.71645116  0.87100269  0.98860495    -0.09690
C3734       C  0.70509503  0.88912203  0.97732229     0.06510
C3735       C  0.69496831  0.90755759  0.98944302    -0.03460
C3736       C  0.69342835  0.90594934  0.01283216    -0.07910
C3737       C  0.70198880  0.88630988  0.02392396     0.05620
C3738       C  0.71498623  0.86950739  0.01224582    -0.02930
Br3739     Br  0.72833794  0.84310257  0.02739536    -0.02630
H3740       H  0.72455102  0.85706871  0.97901371     0.09530
H3741       H  0.68444443  0.91945222  0.02225847     0.07550
Br3742     Br  0.68159254  0.93446880  0.97504629    -0.03050
C3743       C  0.89369871  0.69862668  0.98657625    -0.09690
C3744       C  0.87179881  0.69856123  0.97660612     0.06510
C3745       C  0.85171744  0.70036441  0.98984114    -0.03460
C3746       C  0.85379601  0.70087689  0.01349463    -0.07910
C3747       C  0.87569922  0.69943069  0.02341626     0.05620
C3748       C  0.89578866  0.69901941  0.01007800    -0.02930
Br3749     Br  0.92620242  0.69810103  0.02318677    -0.02630
H3750       H  0.90910335  0.69748280  0.97605810     0.09530
H3751       H  0.83842645  0.70120881  0.02410228     0.07550
Br3752     Br  0.82150455  0.70024634  0.97637608    -0.03050
C3753       C  0.98795702  0.71542177  0.86897144    -0.09690
C3754       C  0.97661905  0.70125855  0.88488311     0.06510
C3755       C  0.98901414  0.68821296  0.90108580    -0.03460
C3756       C  0.01258163  0.68707579  0.89909975    -0.07910
C3757       C  0.02372637  0.69874090  0.88129505     0.05620
C3758       C  0.01180569  0.71430267  0.86713465    -0.02930
Br3759     Br  0.02692188  0.73236793  0.84389586    -0.02630
H3760       H  0.97824460  0.72586630  0.85690986     0.09530
H3761       H  0.02213127  0.67627244  0.91099375     0.07550
Br3762     Br  0.97513883  0.67078389  0.92570673    -0.03050
C3763       C  0.80880118  0.79296788  0.88956789    -0.09690
C3764       C  0.80325632  0.77070212  0.89791102     0.06510
C3765       C  0.78138051  0.76712506  0.90783537    -0.03460
C3766       C  0.76483697  0.78493537  0.90763782    -0.07910
C3767       C  0.76977783  0.80676625  0.89801368     0.05620
C3768       C  0.79226084  0.81094658  0.88955696    -0.02930
Br3769     Br  0.80024402  0.83987311  0.87524636    -0.02630
H3770       H  0.82545883  0.79593163  0.88160800     0.09530
H3771       H  0.74764684  0.78136400  0.91411090     0.07550
Br3772     Br  0.77321107  0.73783938  0.92130086    -0.03050
C3773       C  0.98491845  0.89444959  0.69735766    -0.09690
C3774       C  0.97531183  0.87248128  0.70110832     0.06510
C3775       C  0.98871032  0.85373092  0.70860445    -0.03460
C3776       C  0.01243571  0.85668628  0.71006209    -0.07910
C3777       C  0.02212999  0.87810584  0.70398963     0.05620
C3778       C  0.00841845  0.89739634  0.69869406    -0.02930
Br3779     Br  0.02097175  0.92764417  0.69198927    -0.02630
H3780       H  0.97419429  0.90906599  0.69239569     0.09530
H3781       H  0.02335166  0.84197696  0.71424447     0.07550
Br3782     Br  0.97560201  0.82368575  0.71470511    -0.03050
C3783       C  0.81965960  0.92739805  0.57418940    -0.09690
C3784       C  0.83121240  0.93960466  0.59181119     0.06510
C3785       C  0.82605420  0.96368237  0.59394522    -0.03460
C3786       C  0.80994309  0.97460094  0.57892932    -0.07910
C3787       C  0.79866775  0.96213465  0.56130853     0.05620
C3788       C  0.80389379  0.93824179  0.55922699    -0.02930
Br3789     Br  0.78903461  0.91913829  0.53663657    -0.02630
H3790       H  0.82276386  0.90894612  0.57200280     0.09530
H3791       H  0.80626788  0.99294992  0.58103586     0.07550
Br3792     Br  0.83936532  0.98231053  0.61769723    -0.03050
C3793       C  0.88609434  0.80893229  0.79052289    -0.09690
C3794       C  0.89335077  0.80289450  0.76831274     0.06510
C3795       C  0.90259601  0.78053913  0.76465782    -0.03460
C3796       C  0.90296858  0.76416889  0.78250445    -0.07910
C3797       C  0.89443284  0.76965534  0.80437193     0.05620
C3798       C  0.88644453  0.79249543  0.80844522    -0.02930
Br3799     Br  0.87314161  0.80109599  0.83731961    -0.02630
H3800       H  0.87869797  0.82596187  0.79358637     0.09530
H3801       H  0.90893577  0.74666411  0.77897035     0.07550
Br3802     Br  0.91431655  0.77144335  0.73526725    -0.03050
C3803       C  0.80680730  0.89820923  0.78965015    -0.09690
C3804       C  0.80038880  0.89787024  0.76641736     0.06510
C3805       C  0.77657903  0.89880070  0.76108332    -0.03460
C3806       C  0.75991986  0.89744266  0.77844730    -0.07910
C3807       C  0.76618178  0.89595447  0.80158076     0.05620
C3808       C  0.78994201  0.89746776  0.80718837    -0.02930
Br3809     Br  0.80045491  0.89620577  0.83825902    -0.02630
H3810       H  0.82492940  0.89754402  0.79419358     0.09530
H3811       H  0.74182005  0.89698138  0.77374859     0.07550
Br3812     Br  0.76558543  0.90180881  0.73018394    -0.03050
C3813       C  0.51410934  0.59870314  0.80537761    -0.09690
C3814       C  0.52321041  0.62014253  0.79858249     0.06510
C3815       C  0.50934178  0.63748436  0.78897993    -0.03460
C3816       C  0.48568646  0.63411003  0.78880282    -0.07910
C3817       C  0.47655245  0.61375698  0.79828335     0.05620
C3818       C  0.49064054  0.59539384  0.80538226    -0.02930
Br3819     Br  0.47876936  0.56613116  0.81623186    -0.02630
H3820       H  0.52519936  0.58499226  0.81181985     0.09530
H3821       H  0.47443198  0.64801130  0.78308946     0.07550
Br3822     Br  0.52160400  0.66666067  0.77860695    -0.03050
C3823       C  0.72986972  0.65856309  0.85415103    -0.09690
C3824       C  0.72919545  0.63637202  0.84419082     0.06510
C3825       C  0.74781521  0.62140638  0.84464272    -0.03460
C3826       C  0.76740833  0.62866566  0.85559963    -0.07910
C3827       C  0.76833972  0.65083259  0.86614086     0.05620
C3828       C  0.74937979  0.66583018  0.86545279    -0.02930
Br3829     Br  0.74913931  0.69601277  0.87954362    -0.02630
H3830       H  0.71482539  0.66980108  0.85383528     0.09530
H3831       H  0.78202955  0.61702511  0.85484960     0.07550
Br3832     Br  0.74715583  0.59125185  0.83050595    -0.03050
C3833       C  0.65468431  0.72920221  0.86445359    -0.09690
C3834       C  0.63765871  0.73006586  0.84724477     0.06510
C3835       C  0.62995515  0.75099974  0.83823079    -0.03460
C3836       C  0.63780766  0.77118256  0.84813141    -0.07910
C3837       C  0.65303243  0.77019450  0.86691870     0.05620
C3838       C  0.66234107  0.74935500  0.87450545    -0.02930
Br3839     Br  0.68508746  0.74775865  0.89835978    -0.02630
H3840       H  0.66174787  0.71281199  0.87036665     0.09530
H3841       H  0.63194407  0.78766303  0.84124037     0.07550
Br3842     Br  0.60880603  0.75267087  0.81297555    -0.03050
C3843       C  0.82770460  0.63058121  0.51212701    -0.09690
C3844       C  0.80683585  0.63563970  0.52313194     0.06510
C3845       C  0.78720090  0.64087617  0.50986523    -0.03460
C3846       C  0.78816819  0.63735843  0.48624025    -0.07910
C3847       C  0.80809998  0.62801910  0.47604780     0.05620
C3848       C  0.82817273  0.62484416  0.48935490    -0.02930
Br3849     Br  0.85596276  0.60904346  0.48006895    -0.02630
H3850       H  0.84345711  0.62789582  0.52176872     0.09530
H3851       H  0.77296124  0.64097854  0.47609921     0.07550
Br3852     Br  0.75906949  0.65325357  0.52212733    -0.03050
C3853       C  0.86507194  0.64919922  0.73007778    -0.09690
C3854       C  0.84712559  0.63257670  0.72980619     0.06510
C3855       C  0.83408998  0.62788530  0.74933866    -0.03460
C3856       C  0.84002337  0.63890994  0.76937777    -0.07910
C3857       C  0.85893701  0.65420236  0.76983194     0.05620
C3858       C  0.87105467  0.66009271  0.75017353    -0.02930
Br3859     Br  0.89571396  0.68247114  0.75019581    -0.02630
H3860       H  0.87423336  0.65411267  0.71464237     0.09530
H3861       H  0.83040695  0.63497545  0.78484388     0.07550
Br3862     Br  0.80854850  0.60651411  0.74948660    -0.03050
C3863       C  0.83681647  0.74499334  0.62748192    -0.09690
C3864       C  0.84408224  0.72677900  0.64104810     0.06510
C3865       C  0.85711117  0.72997939  0.66109064    -0.03460
C3866       C  0.86522292  0.75181280  0.66582096    -0.07910
C3867       C  0.85901995  0.77009715  0.65158999     0.05620
C3868       C  0.84348493  0.76710645  0.63307141    -0.02930
Br3869     Br  0.82842172  0.79156993  0.61612218    -0.02630
H3870       H  0.82568613  0.74198677  0.61284039     0.09530
H3871       H  0.87578255  0.75468810  0.68089999     0.07550
Br3872     Br  0.86332372  0.70573466  0.68300360    -0.03050
C3873       C  0.73581226  0.59511185  0.71807826    -0.09690
C3874       C  0.72962300  0.59846904  0.69505246     0.06510
C3875       C  0.70600304  0.60177824  0.68986163    -0.03460
C3876       C  0.68950743  0.60315540  0.70769633    -0.07910
C3877       C  0.69620786  0.60159722  0.73082815     0.05620
C3878       C  0.71951521  0.59665177  0.73575773    -0.02930
Br3879     Br  0.73023026  0.59244042  0.76655383    -0.02630
H3880       H  0.75380049  0.59249147  0.72250481     0.09530
H3881       H  0.67170843  0.60710127  0.70353614     0.07550
Br3882     Br  0.69582599  0.60745115  0.65915818    -0.03050
C3883       C  0.51275556  0.78878323  0.63838508    -0.09690
C3884       C  0.52543229  0.80218978  0.62287661     0.06510
C3885       C  0.51494641  0.81182591  0.60330869    -0.03460
C3886       C  0.49150856  0.80950335  0.60066422    -0.07910
C3887       C  0.47845884  0.79799003  0.61720011     0.05620
C3888       C  0.48903112  0.78669188  0.63577395    -0.02930
Br3889     Br  0.47211159  0.77066439  0.65926219    -0.02630
H3890       H  0.52112797  0.78103415  0.65311630     0.09530
H3891       H  0.48324137  0.81767420  0.58607582     0.07550
Br3892     Br  0.53097600  0.82854036  0.57950171    -0.03050
C3893       C  0.63077063  0.78859505  0.51111209    -0.09690
C3894       C  0.61484719  0.80287926  0.52238030     0.06510
C3895       C  0.59900805  0.81650321  0.51009116    -0.03460
C3896       C  0.60106316  0.81767263  0.48670494    -0.07910
C3897       C  0.61847111  0.80528142  0.47556567     0.05620
C3898       C  0.63262186  0.78963829  0.48747244    -0.02930
Br3899     Br  0.65580113  0.77111972  0.47260691    -0.02630
H3900       H  0.64266965  0.77782067  0.52071740     0.09530
H3901       H  0.58925766  0.82868211  0.47723597     0.07550
Br3902     Br  0.57432512  0.83401284  0.52390969    -0.03050
C3903       C  0.63011439  0.83635255  0.74634799    -0.09690
C3904       C  0.64580972  0.84365623  0.72997827     0.06510
C3905       C  0.66409887  0.85882581  0.73497340    -0.03460
C3906       C  0.66537423  0.86814037  0.75650770    -0.07910
C3907       C  0.64951929  0.86118684  0.77308612     0.05620
C3908       C  0.63217741  0.84448912  0.76835675    -0.02930
Br3909     Br  0.61259832  0.82966853  0.79071412    -0.02630
H3910       H  0.61640168  0.82426472  0.74198088     0.09530
H3911       H  0.67949212  0.87981846  0.76071244     0.07550
Br3912     Br  0.68813541  0.86652615  0.71342924    -0.03050
C3913       C  0.74459323  0.86661668  0.62154424    -0.09690
C3914       C  0.73569015  0.84656995  0.63203058     0.06510
C3915       C  0.74266626  0.84041429  0.65441215    -0.03460
C3916       C  0.75804398  0.85455324  0.66572878    -0.07910
C3917       C  0.76801261  0.87364206  0.65461110     0.05620
C3918       C  0.75980086  0.88082764  0.63320118    -0.02930
Br3919     Br  0.76905846  0.90969123  0.61931205    -0.02630
H3920       H  0.73814496  0.87224620  0.60502815     0.09530
H3921       H  0.76389014  0.84910968  0.68251428     0.07550
Br3922     Br  0.73238649  0.81348312  0.67135749    -0.03050
C3923       C  0.66648522  0.93191937  0.56026644    -0.09690
C3924       C  0.67232796  0.90839878  0.56279485     0.06510
C3925       C  0.69450191  0.90134831  0.55539820    -0.03460
C3926       C  0.70985044  0.91734192  0.54497494    -0.07910
C3927       C  0.70406193  0.94103796  0.54219633     0.05620
C3928       C  0.68193097  0.94816938  0.55049223    -0.02930
Br3929     Br  0.67093481  0.97971894  0.54919249    -0.02630
H3930       H  0.64998748  0.93793497  0.56672625     0.09530
H3931       H  0.72657373  0.91118142  0.53929638     0.07550
Br3932     Br  0.70486270  0.87000428  0.55992542    -0.03050
C3933       C  0.59075181  0.72323585  0.70341182    -0.09690
C3934       C  0.61200727  0.72743117  0.69245817     0.06510
C3935       C  0.63081183  0.71266109  0.69741530    -0.03460
C3936       C  0.62887685  0.69580587  0.71459965    -0.07910
C3937       C  0.60828473  0.69290565  0.72697129     0.05620
C3938       C  0.58879652  0.70605105  0.72055544    -0.02930
Br3939     Br  0.55990132  0.70245663  0.73615272    -0.02630
H3940       H  0.57605917  0.73424464  0.69965768     0.09530
H3941       H  0.64393759  0.68558591  0.71906357     0.07550
Br3942     Br  0.65977928  0.71494322  0.68148587    -0.03050
C3943       C  0.72165781  0.73609593  0.59755976    -0.09690
C3944       C  0.69809312  0.73032434  0.59892834     0.06510
C3945       C  0.69195350  0.70655312  0.60018569    -0.03460
C3946       C  0.70934956  0.68941034  0.60187405    -0.07910
C3947       C  0.73287700  0.69564301  0.60269151     0.05620
C3948       C  0.73888373  0.71918642  0.59956009    -0.02930
Br3949     Br  0.77046211  0.72946541  0.59864481    -0.02630
H3950       H  0.72679249  0.75420141  0.59636620     0.09530
H3951       H  0.70441463  0.67138134  0.60424014     0.07550
Br3952     Br  0.66036769  0.69679791  0.60247823    -0.03050
C3953       C  0.29467605  0.13979261  0.98931776    -0.09690
C3954       C  0.30292824  0.12096533  0.97658686     0.06510
C3955       C  0.30770342  0.09948002  0.98699862    -0.03460
C3956       C  0.30668920  0.09788724  0.01052590    -0.07910
C3957       C  0.30057498  0.11731463  0.02344511     0.05620
C3958       C  0.29341326  0.13805389  0.01299642    -0.02930
Br3959     Br  0.28453659  0.16494925  0.03039471    -0.02630
H3960       H  0.29061712  0.15614918  0.98101159     0.09530
H3961       H  0.31176856  0.08182025  0.01884381     0.07550
Br3962     Br  0.31637069  0.07209166  0.97014879    -0.03050
C3963       C  0.30999422  0.01365244  0.89717602    -0.09690
C3964       C  0.30097575  0.02457246  0.87781299     0.06510
C3965       C  0.28955876  0.01196869  0.86074312    -0.03460
C3966       C  0.29033015  0.98788697  0.86163582    -0.07910
C3967       C  0.30223310  0.97705250  0.87949482     0.05620
C3968       C  0.31065275  0.98977579  0.89821758    -0.02930
Br3969     Br  0.32374018  0.97581435  0.92518854    -0.02630
H3970       H  0.31770276  0.02372007  0.91089694     0.09530
H3971       H  0.28314404  0.97774004  0.84770776     0.07550
Br3972     Br  0.27511985  0.02680802  0.83506906    -0.03050
C3973       C  0.14692694  0.01162726  0.67872938    -0.09690
C3974       C  0.13636494  0.02291909  0.69716109     0.06510
C3975       C  0.13139448  0.01072606  0.71748687    -0.03460
C3976       C  0.13374571  0.98675554  0.71755101    -0.07910
C3977       C  0.14076404  0.97523962  0.69763476     0.05620
C3978       C  0.14949423  0.98772637  0.67898626    -0.02930
Br3979     Br  0.16361295  0.97280243  0.65316498    -0.02630
H3980       H  0.15166097  0.02117064  0.66350745     0.09530
H3981       H  0.12749282  0.97707519  0.73221864     0.07550
Br3982     Br  0.11758636  0.02462834  0.74412982    -0.03050
C3983       C  0.23802842  0.10672636  0.78115563    -0.09690
C3984       C  0.23124792  0.10503166  0.80417874     0.06510
C3985       C  0.20763507  0.10075378  0.80897933    -0.03460
C3986       C  0.19135971  0.09966541  0.79095378    -0.07910
C3987       C  0.19813674  0.10288732  0.76800622     0.05620
C3988       C  0.22192919  0.10551073  0.76328533    -0.02930
Br3989     Br  0.23359674  0.10757360  0.73257708    -0.02630
H3990       H  0.25604888  0.10966038  0.77699940     0.09530
H3991       H  0.17320070  0.09776171  0.79503070     0.07550
Br3992     Br  0.19616853  0.09900126  0.83972922    -0.03050
C3993       C  0.14381417  0.29360839  0.98811489    -0.09690
C3994       C  0.12337569  0.30031067  0.97724523     0.06510
C3995       C  0.10295102  0.30415281  0.98954738    -0.03460
C3996       C  0.10372899  0.30336799  0.01302188    -0.07910
C3997       C  0.12459294  0.29881400  0.02403126     0.05620
C3998       C  0.14454204  0.29284788  0.01182961    -0.02930
Br3999     Br  0.17319395  0.28583163  0.02680515    -0.02630
H4000       H  0.15934885  0.29029366  0.97827236     0.09530
H4001       H  0.08826101  0.30732001  0.02276127     0.07550
Br4002     Br  0.07380774  0.31111184  0.97533352    -0.03050
C4003       C  0.19091464  0.21019890  0.89734584    -0.09690
C4004       C  0.19751012  0.23350782  0.90065750     0.06510
C4005       C  0.22080065  0.23844030  0.90577196    -0.03460
C4006       C  0.23731412  0.22066405  0.90547522    -0.07910
C4007       C  0.23108133  0.19759543  0.90065802     0.05620
C4008       C  0.20749861  0.19226473  0.89729331    -0.02930
Br4009     Br  0.19745793  0.16141576  0.88965318    -0.02630
H4010       H  0.17314314  0.20611878  0.89314620     0.09530
H4011       H  0.25532133  0.22504192  0.90818751     0.07550
Br4012     Br  0.23100225  0.26934049  0.91303965    -0.03050
C4013       C  0.08968803  0.22666490  0.79257698    -0.09690
C4014       C  0.10881015  0.22849905  0.80730607     0.06510
C4015       C  0.12595435  0.21111340  0.80637036    -0.03460
C4016       C  0.12462089  0.19329742  0.78995998    -0.07910
C4017       C  0.10618190  0.19213219  0.77437565     0.05620
C4018       C  0.08829313  0.20866649  0.77620738    -0.02930
Br4019     Br  0.06279564  0.20848461  0.75529392    -0.02630
H4020       H  0.07639806  0.23991462  0.79299750     0.09530
H4021       H  0.13861270  0.18084983  0.78870354     0.07550
Br4022     Br  0.15201598  0.21151266  0.82666372    -0.03050
C4023       C  0.34567463  0.48732676  0.80442563    -0.09690
C4024       C  0.36738278  0.47750266  0.80068045     0.06510
C4025       C  0.38648327  0.49102751  0.79437197    -0.03460
C4026       C  0.38394023  0.51485298  0.79333924    -0.07910
C4027       C  0.36272346  0.52487193  0.79903642     0.05620
C4028       C  0.34324965  0.51128079  0.80367579    -0.02930
Br4029     Br  0.31388369  0.52488972  0.81070136    -0.02630
H4030       H  0.33107265  0.47651766  0.80914550     0.09530
H4031       H  0.39895717  0.52566493  0.79007950     0.07550
Br4032     Br  0.41676742  0.47806891  0.78987837    -0.03050
C4033       C  0.34027671  0.26825429  0.85122502    -0.09690
C4034       C  0.36350499  0.26819050  0.84426647     0.06510
C4035       C  0.37937181  0.25316425  0.85430091    -0.03460
C4036       C  0.37151734  0.23702160  0.86999213    -0.07910
C4037       C  0.34763226  0.23478214  0.87427857     0.05620
C4038       C  0.33251080  0.25230491  0.86712091    -0.02930
Br4039     Br  0.30208980  0.25629441  0.87967439    -0.02630
H4040       H  0.32865932  0.28191162  0.84561680     0.09530
H4041       H  0.38375592  0.22443719  0.87657911     0.07550
Br4042     Br  0.41156791  0.25386624  0.84643498    -0.03050
C4043       C  0.26417831  0.34157348  0.84375647    -0.09690
C4044       C  0.26896564  0.36536319  0.84292071     0.06510
C4045       C  0.25682879  0.38113236  0.85650115    -0.03460
C4046       C  0.23878457  0.37301358  0.86981223    -0.07910
C4047       C  0.23263500  0.34932185  0.86920267     0.05620
C4048       C  0.24674548  0.33328304  0.85747935    -0.02930
Br4049     Br  0.24407048  0.29998606  0.85942765    -0.02630
H4050       H  0.27515499  0.32917175  0.83493573     0.09530
H4051       H  0.22897575  0.38549704  0.87967444     0.07550
Br4052     Br  0.26449824  0.41363820  0.85724494    -0.03050
C4053       C  0.21818330  0.48689745  0.62731048    -0.09690
C4054       C  0.19890192  0.47561788  0.63659498     0.06510
C4055       C  0.18096293  0.48838511  0.64666730    -0.03460
C4056       C  0.18089786  0.51233341  0.64431928    -0.07910
C4057       C  0.19855077  0.52336139  0.63205357     0.05620
C4058       C  0.21807934  0.51086911  0.62475799    -0.02930
Br4059     Br  0.24297383  0.52461851  0.60765823    -0.02630
H4060       H  0.23213526  0.47698868  0.61970265     0.09530
H4061       H  0.16626838  0.52216618  0.65069013     0.07550
Br4062     Br  0.15558271  0.47388115  0.66232463    -0.03050
C4063       C  0.18837690  0.39677468  0.51267502    -0.09690
C4064       C  0.19860169  0.37737686  0.52287373     0.06510
C4065       C  0.21091283  0.36104312  0.50988375    -0.03460
C4066       C  0.21139933  0.36363132  0.48627393    -0.07910
C4067       C  0.19952536  0.38214066  0.47611290     0.05620
C4068       C  0.18862528  0.39926470  0.48935197    -0.02930
Br4069     Br  0.17364498  0.42635810  0.47692744    -0.02630
H4070       H  0.17963816  0.40985894  0.52286930     0.09530
H4071       H  0.21982318  0.35055774  0.47582442     0.07550
Br4072     Br  0.22529409  0.33417846  0.52318569    -0.03050
C4073       C  0.16362174  0.37022609  0.74656516    -0.09690
C4074       C  0.15266913  0.35914068  0.72851924     0.06510
C4075       C  0.13623996  0.34135137  0.73200284    -0.03460
C4076       C  0.12918668  0.33664167  0.75395795    -0.07910
C4077       C  0.13930195  0.34856451  0.77198834     0.05620
C4078       C  0.15750177  0.36456905  0.76858782    -0.02930
Br4079     Br  0.17617036  0.37756599  0.79270701    -0.02630
H4080       H  0.17717697  0.38289481  0.74348080     0.09530
H4081       H  0.11632206  0.32326390  0.75705351     0.07550
Br4082     Br  0.12431413  0.32156818  0.70813858    -0.03050
C4083       C  0.12157776  0.24036309  0.63767213    -0.09690
C4084       C  0.13119798  0.23353198  0.65867860     0.06510
C4085       C  0.15138060  0.24454691  0.66695169    -0.03460
C4086       C  0.16207033  0.26088152  0.65344621    -0.07910
C4087       C  0.15266034  0.26743734  0.63236894     0.05620
C4088       C  0.13253577  0.25678461  0.62417475    -0.02930
Br4089     Br  0.11985072  0.26373053  0.59456233    -0.02630
H4090       H  0.10658294  0.23139864  0.63085945     0.09530
H4091       H  0.17724692  0.26945988  0.66028692     0.07550
Br4092     Br  0.16673538  0.23869995  0.69565472    -0.03050
C4093       C  0.26221018  0.39562750  0.71947911    -0.09690
C4094       C  0.26815278  0.39480195  0.69619416     0.06510
C4095       C  0.29172067  0.39740062  0.69016687    -0.03460
C4096       C  0.30878088  0.39884120  0.70741806    -0.07910
C4097       C  0.30274093  0.39785248  0.73073978     0.05620
C4098       C  0.27909152  0.39733733  0.73655309    -0.02930
Br4099     Br  0.26883471  0.39863427  0.76778808    -0.02630
H4100       H  0.24424467  0.39422036  0.72452281     0.09530
H4101       H  0.32684449  0.39913615  0.70257333     0.07550
Br4102     Br  0.30185444  0.39642315  0.65891911    -0.03050
C4103       C  0.40186965  0.19407688  0.49000253    -0.09690
C4104       C  0.38242811  0.20083347  0.47766639     0.06510
C4105       C  0.36269955  0.20957113  0.48857699    -0.03460
C4106       C  0.36159650  0.20857284  0.51226916    -0.07910
C4107       C  0.38009809  0.19910541  0.52442302     0.05620
C4108       C  0.40093895  0.19331300  0.51351035    -0.02930
Br4109     Br  0.42817426  0.18321812  0.52950624    -0.02630
H4110       H  0.41729472  0.18807808  0.48126704     0.09530
H4111       H  0.34585305  0.21359615  0.52102058     0.07550
Br4112     Br  0.33619047  0.22016233  0.47186252    -0.03050
C4113       C  0.35522362  0.16221592  0.76916179    -0.09690
C4114       C  0.34375208  0.14071725  0.76964739     0.06510
C4115       C  0.34505576  0.12510939  0.75161745    -0.03460
C4116       C  0.35787800  0.13130664  0.73275702    -0.07910
C4117       C  0.36869555  0.15335490  0.73164004     0.05620
C4118       C  0.36819373  0.16845375  0.75040337    -0.02930
Br4119     Br  0.38544640  0.19699952  0.75186117    -0.02630
H4120       H  0.35492227  0.17365279  0.78393921     0.09530
H4121       H  0.35810104  0.11927029  0.71849278     0.07550
Br4122     Br  0.32917954  0.09574490  0.75190739    -0.03050
C4123       C  0.24774993  0.13371993  0.66552683    -0.09690
C4124       C  0.22911543  0.13772854  0.65109108     0.06510
C4125       C  0.23162503  0.15067268  0.63047124    -0.03460
C4126       C  0.25312916  0.15878648  0.62464744    -0.07910
C4127       C  0.27137876  0.15495802  0.63931622     0.05620
C4128       C  0.26891830  0.14284907  0.66011186    -0.02930
Br4129     Br  0.29325721  0.13922922  0.68230265    -0.02630
H4130       H  0.24557414  0.12440890  0.68152682     0.09530
H4131       H  0.25559727  0.16846340  0.60888353     0.07550
Br4132     Br  0.20721074  0.16042795  0.61014938    -0.03050
C4133       C  0.28214450  0.26119823  0.60087420    -0.09690
C4134       C  0.30513538  0.26870324  0.60243152     0.06510
C4135       C  0.30971991  0.29286311  0.60154513    -0.03460
C4136       C  0.29129007  0.30892579  0.60087205    -0.07910
C4137       C  0.26819175  0.30127670  0.60100875     0.05620
C4138       C  0.26386252  0.27709219  0.59984284    -0.02930
Br4139     Br  0.23319269  0.26457521  0.59707379    -0.02630
H4140       H  0.27829851  0.24273563  0.60118322     0.09530
H4141       H  0.29501753  0.32737516  0.60185433     0.07550
Br4142     Br  0.34051093  0.30489758  0.60399820    -0.03050
C4143       C  0.41701529  0.27759802  0.70544933    -0.09690
C4144       C  0.39744996  0.27408573  0.69162616     0.06510
C4145       C  0.37840856  0.28915868  0.69420854    -0.03460
C4146       C  0.37840403  0.30606827  0.71146650    -0.07910
C4147       C  0.39729025  0.30863722  0.72629025     0.05620
C4148       C  0.41705518  0.29479456  0.72267706    -0.02930
Br4149     Br  0.44343444  0.29727298  0.74232370    -0.02630
H4150       H  0.43171320  0.26606787  0.70379329     0.09530
H4151       H  0.36313470  0.31667865  0.71392152     0.07550
Br4152     Br  0.35152154  0.28675266  0.67508971    -0.03050
C4153       C  0.85295318  0.29932002  0.98870228    -0.09690
C4154       C  0.87381270  0.30140326  0.97688140     0.06510
C4155       C  0.89514965  0.30034786  0.98817075    -0.03460
C4156       C  0.89533116  0.29976479  0.01172899    -0.07910
C4157       C  0.87448064  0.30010824  0.02364071     0.05620
C4158       C  0.85320632  0.29857481  0.01240655    -0.02930
Br4159     Br  0.82449481  0.29779363  0.02881957    -0.02630
H4160       H  0.83662951  0.29981387  0.97964486     0.09530
H4161       H  0.91165522  0.30065980  0.02078244     0.07550
Br4162     Br  0.92427480  0.30180767  0.97237218    -0.03050
C4163       C  0.98849965  0.31819539  0.85466774    -0.09690
C4164       C  0.97742618  0.30087873  0.86743636     0.06510
C4165       C  0.98958864  0.28117072  0.87503080    -0.03460
C4166       C  0.01339718  0.28088761  0.87268041    -0.07910
C4167       C  0.02471358  0.30008684  0.86313324     0.05620
C4168       C  0.01225931  0.31782618  0.85236278    -0.02930
Br4169     Br  0.02710809  0.34253600  0.83588097    -0.02630
H4170       H  0.97888387  0.33285220  0.84793785     0.09530
H4171       H  0.02312672  0.26699936  0.88068704     0.07550
Br4172     Br  0.97560600  0.25637373  0.89226849    -0.03050
C4173       C  0.67909521  0.13873615  0.01301457    -0.09690
C4174       C  0.69937327  0.12975655  0.02256914     0.06510
C4175       C  0.71921819  0.12679804  0.00895921    -0.03460
C4176       C  0.71759450  0.13051908  0.98558107    -0.07910
C4177       C  0.69640538  0.13656064  0.97567010     0.05620
C4178       C  0.67744452  0.14213955  0.98962665    -0.02930
Br4179     Br  0.64865822  0.15340082  0.97792251    -0.02630
H4180       H  0.66404538  0.14194832  0.02361843     0.09530
H4181       H  0.73241410  0.12640569  0.97502096     0.07550
Br4182     Br  0.74788444  0.11430329  0.01997697    -0.03050
C4183       C  0.67934957  0.01520918  0.85571632    -0.09690
C4184       C  0.69850907  0.02497408  0.86676556     0.06510
C4185       C  0.71771912  0.01123589  0.87253063    -0.03460
C4186       C  0.71650129  0.98753032  0.86898344    -0.07910
C4187       C  0.69613038  0.97747946  0.86072492     0.05620
C4188       C  0.67801628  0.99136089  0.85269663    -0.02930
Br4189     Br  0.65083587  0.97848142  0.83881821    -0.02630
H4190       H  0.66483427  0.02597008  0.85070410     0.09530
H4191       H  0.73051768  0.97680610  0.87524234     0.07550
Br4192     Br  0.74411631  0.02237537  0.88924300    -0.03050
C4193       C  0.80934738  0.21236867  0.90081925    -0.09690
C4194       C  0.80290684  0.23585112  0.89829852     0.06510
C4195       C  0.77921006  0.24134642  0.89749177    -0.03460
C4196       C  0.76266967  0.22362526  0.89702939    -0.07910
C4197       C  0.76905261  0.20006763  0.89746484     0.05620
C4198       C  0.79262832  0.19447607  0.90037392    -0.02930
Br4199     Br  0.80316574  0.16287176  0.90111692    -0.02630
H4200       H  0.82747752  0.20779674  0.90154699     0.09530
H4201       H  0.74462993  0.22832446  0.89527555     0.07550
Br4202     Br  0.76834163  0.27285933  0.89664708    -0.03050
C4203       C  0.98943426  0.15299948  0.69637161    -0.09690
C4204       C  0.97667349  0.13302801  0.70137764     0.06510
C4205       C  0.98732638  0.11265907  0.70937702    -0.03460
C4206       C  0.01113878  0.11178960  0.71009255    -0.07910
C4207       C  0.02392267  0.13103222  0.70298800     0.05620
C4208       C  0.01331563  0.15214419  0.69746149    -0.02930
Br4209     Br  0.03092171  0.17949642  0.69053006    -0.02630
H4210       H  0.98092346  0.16874277  0.69063288     0.09530
H4211       H  0.01966447  0.09558037  0.71440552     0.07550
Br4212     Br  0.97041312  0.08481092  0.71664567    -0.03050
C4213       C  0.86679255  0.98931622  0.71400626    -0.09690
C4214       C  0.88491805  0.97830486  0.70252152     0.06510
C4215       C  0.90265989  0.99100424  0.69196783    -0.03460
C4216       C  0.90029737  0.01467433  0.69022474    -0.07910
C4217       C  0.88061836  0.02543437  0.69904642     0.05620
C4218       C  0.86457318  0.01322502  0.71238334    -0.02930
Br4219     Br  0.83841732  0.02800346  0.72640095    -0.02630
H4220       H  0.85345305  0.97925719  0.72249906     0.09530
H4221       H  0.91339872  0.02457358  0.68119170     0.07550
Br4222     Br  0.92978950  0.97705428  0.67873579    -0.03050
C4223       C  0.80544998  0.06654615  0.59709801    -0.09690
C4224       C  0.82955343  0.06636689  0.59349563     0.06510
C4225       C  0.83765900  0.05349523  0.57446333    -0.03460
C4226       C  0.82196937  0.04206663  0.55939399    -0.07910
C4227       C  0.79771443  0.04265435  0.56276398     0.05620
C4228       C  0.78978937  0.05489655  0.58241962    -0.02930
Br4229     Br  0.75756811  0.05829107  0.58959511    -0.02630
H4230       H  0.79854283  0.07647934  0.61130654     0.09530
H4231       H  0.82884806  0.03295901  0.54466314     0.07550
Br4232     Br  0.86991157  0.05266836  0.56724581    -0.03050
C4233       C  0.78205217  0.09933689  0.76376016    -0.09690
C4234       C  0.80535454  0.10148652  0.76992526     0.06510
C4235       C  0.81102586  0.10141647  0.79350044    -0.03460
C4236       C  0.79333600  0.10134210  0.81019837    -0.07910
C4237       C  0.76992095  0.10110765  0.80378638     0.05620
C4238       C  0.76453479  0.09878522  0.78030762    -0.02930
Br4239     Br  0.73330704  0.09535106  0.76970826    -0.02630
H4240       H  0.77733530  0.09892664  0.74581383     0.09530
H4241       H  0.79787808  0.10318358  0.82809172     0.07550
Br4242     Br  0.84230184  0.10414560  0.80386601    -0.03050
C4243       C  0.90529442  0.21860477  0.76785052    -0.09690
C4244       C  0.89652645  0.19639637  0.77275278     0.06510
C4245       C  0.88941424  0.19143153  0.79535752    -0.03460
C4246       C  0.89010826  0.20892004  0.81225947    -0.07910
C4247       C  0.89782225  0.23148756  0.80696677     0.05620
C4248       C  0.90617755  0.23593418  0.78475590    -0.02930
Br4249     Br  0.91884861  0.26561334  0.77682537    -0.02630
H4250       H  0.91085154  0.22271672  0.75059972     0.09530
H4251       H  0.88335536  0.20525435  0.82918263     0.07550
Br4252     Br  0.87645290  0.16181222  0.80331610    -0.03050
C4253       C  0.51421618  0.20084145  0.60984751    -0.09690
C4254       C  0.52473239  0.19849074  0.63119173     0.06510
C4255       C  0.51195512  0.19792212  0.65148922    -0.03460
C4256       C  0.48809925  0.19779712  0.65005258    -0.07910
C4257       C  0.47766481  0.19813711  0.62853573     0.05620
C4258       C  0.49050132  0.20052912  0.60835726    -0.02930
Br4259     Br  0.47655401  0.20108717  0.57850148    -0.02630
H4260       H  0.52447422  0.20131033  0.59430584     0.09530
H4261       H  0.47779543  0.19602007  0.66545892     0.07550
Br4262     Br  0.52640989  0.19538214  0.68090932    -0.03050
C4263       C  0.59957366  0.19112496  0.51488651    -0.09690
C4264       C  0.61966336  0.19992155  0.52486469     0.06510
C4265       C  0.63579869  0.21260253  0.51206198    -0.03460
C4266       C  0.63300517  0.21374528  0.48850383    -0.07910
C4267       C  0.61424757  0.20239666  0.47832223     0.05620
C4268       C  0.59668789  0.19231981  0.49157589    -0.02930
Br4269     Br  0.56893146  0.17918605  0.47887138    -0.02630
H4270       H  0.58654188  0.18244765  0.52514985     0.09530
H4271       H  0.64626461  0.22185093  0.47808969     0.07550
Br4272     Br  0.66271311  0.22634257  0.52567664    -0.03050
C4273       C  0.73163727  0.14592786  0.66005417    -0.09690
C4274       C  0.73168927  0.15615517  0.63822717     0.06510
C4275       C  0.74992103  0.15329290  0.62316375    -0.03460
C4276       C  0.76875673  0.14082235  0.63046424    -0.07910
C4277       C  0.76979347  0.13224267  0.65315412     0.05620
C4278       C  0.75048041  0.13344303  0.66746367    -0.02930
Br4279     Br  0.74842242  0.11767068  0.69639112    -0.02630
H4280       H  0.71650647  0.14701874  0.67097194     0.09530
H4281       H  0.78322448  0.13950653  0.61877365     0.07550
Br4282     Br  0.74999057  0.16682562  0.59310353    -0.03050
C4283       C  0.63930001  0.12998712  0.73355612    -0.09690
C4284       C  0.63298737  0.15370247  0.73204314     0.06510
C4285       C  0.63682646  0.16872385  0.75049737    -0.03460
C4286       C  0.65000981  0.16083593  0.76850982    -0.07910
C4287       C  0.65793973  0.13776215  0.76883455     0.05620
C4288       C  0.65223942  0.12211727  0.75168692    -0.02930
Br4289     Br  0.66228787  0.09027920  0.75226866    -0.02630
H4290       H  0.63572375  0.11775568  0.71990049     0.09530
H4291       H  0.65288663  0.17222544  0.78304579     0.07550
Br4292     Br  0.62304275  0.19901095  0.75304891    -0.03050
C4293       C  0.68497613  0.10115631  0.54698217    -0.09690
C4294       C  0.67134505  0.09227754  0.56500302     0.06510
C4295       C  0.67380095  0.06845602  0.57043034    -0.03460
C4296       C  0.68914944  0.05416082  0.55807174    -0.07910
C4297       C  0.70338309  0.06301352  0.54049885     0.05620
C4298       C  0.70096937  0.08692276  0.53498718    -0.02930
Br4299     Br  0.71894084  0.10110058  0.51123708    -0.02630
H4300       H  0.68392436  0.11949454  0.54283546     0.09530
H4301       H  0.69057004  0.03602022  0.56291483     0.07550
Br4302     Br  0.65696714  0.05460377  0.59526039    -0.03050
C4303       C  0.48675193  0.35714775  0.81977661    -0.09690
C4304       C  0.47567911  0.36742958  0.80117644     0.06510
C4305       C  0.48818940  0.37384825  0.78151844    -0.03460
C4306       C  0.51208919  0.37292744  0.78230162    -0.07910
C4307       C  0.52317912  0.36649475  0.80262334     0.05620
C4308       C  0.51049051  0.35725455  0.82093720    -0.02930
Br4309     Br  0.52394554  0.34685279  0.84887078    -0.02630
H4310       H  0.47696833  0.35121144  0.83450092     0.09530
H4311       H  0.52186829  0.37971111  0.76795241     0.07550
Br4312     Br  0.47440226  0.38766563  0.75488346    -0.03050
C4313       C  0.61494657  0.48627254  0.79045829    -0.09690
C4314       C  0.63396450  0.47518234  0.80020515     0.06510
C4315       C  0.65263501  0.48768829  0.80910123    -0.03460
C4316       C  0.65157264  0.51174949  0.80914625    -0.07910
C4317       C  0.63192847  0.52276397  0.80057462     0.05620
C4318       C  0.61364658  0.51020453  0.79085493    -0.02930
Br4319     Br  0.58549518  0.52465546  0.78073242    -0.02630
H4320       H  0.60039691  0.47626714  0.78412643     0.09530
H4321       H  0.66544305  0.52178175  0.81677069     0.07550
Br4322     Br  0.67889746  0.47249691  0.82237795    -0.03050
C4323       C  0.74446948  0.37959853  0.85040154    -0.09690
C4324       C  0.73011081  0.36134319  0.84413848     0.06510
C4325       C  0.73440318  0.33846146  0.85134809    -0.03460
C4326       C  0.75406219  0.33397087  0.86366576    -0.07910
C4327       C  0.77009011  0.35170374  0.86760771     0.05620
C4328       C  0.76448211  0.37508170  0.86236167    -0.02930
Br4329     Br  0.78247742  0.40186624  0.87065441    -0.02630
H4330       H  0.73974307  0.39742442  0.84648771     0.09530
H4331       H  0.75741129  0.31622854  0.86880838     0.07550
Br4332     Br  0.71368667  0.31283954  0.84584464    -0.03050
C4333       C  0.66168435  0.26467375  0.84624619    -0.09690
C4334       C  0.63801286  0.26762258  0.85053188     0.06510
C4335       C  0.62752179  0.25605697  0.86894356    -0.03460
C4336       C  0.64042454  0.24084368  0.88193944    -0.07910
C4337       C  0.66239666  0.23443330  0.87434083     0.05620
C4338       C  0.67418592  0.24852362  0.85852519    -0.02930
Br4339     Br  0.70655843  0.24557952  0.85175220    -0.02630
H4340       H  0.67066257  0.27533557  0.83377965     0.09530
H4341       H  0.63180724  0.23089664  0.89521226     0.07550
Br4342     Br  0.59545220  0.25904085  0.87606118    -0.03050
C4343       C  0.59412920  0.26317449  0.71797945    -0.09690
C4344       C  0.60039596  0.26997763  0.69578907     0.06510
C4345       C  0.60459083  0.29376123  0.69136359    -0.03460
C4346       C  0.60371077  0.31003778  0.70936674    -0.07910
C4347       C  0.59891798  0.30286438  0.73188234     0.05620
C4348       C  0.59321664  0.27935535  0.73587294    -0.02930
Br4349     Br  0.58493707  0.26833002  0.76579628    -0.02630
H4350       H  0.59091174  0.24496608  0.72163678     0.09530
H4351       H  0.60855147  0.32794517  0.70607596     0.07550
Br4352     Br  0.61460470  0.30429477  0.66181240    -0.03050
C4353       C  0.78314756  0.48253972  0.62919906    -0.09690
C4354       C  0.80275034  0.47363299  0.64015828     0.06510
C4355       C  0.81919908  0.48857673  0.64987849    -0.03460
C4356       C  0.81778990  0.51211274  0.64515761    -0.07910
C4357       C  0.80007006  0.52042118  0.63112603     0.05620
C4358       C  0.78191834  0.50593542  0.62410654    -0.02930
Br4359     Br  0.75772517  0.51580131  0.60375506    -0.02630
H4360       H  0.77026112  0.47104521  0.62189107     0.09530
H4361       H  0.83125753  0.52369233  0.65123276     0.07550
Br4362     Br  0.84448940  0.47764821  0.66821186    -0.03050
C4363       C  0.78796976  0.36853435  0.51260520    -0.09690
C4364       C  0.81009848  0.37237146  0.52191134     0.06510
C4365       C  0.82971120  0.36851078  0.50799676    -0.03460
C4366       C  0.82671513  0.35830175  0.48693311    -0.07910
C4367       C  0.80561971  0.36136221  0.47592388     0.05620
C4368       C  0.78554048  0.36441865  0.48915094    -0.02930
Br4369     Br  0.75514114  0.36528526  0.47615426    -0.02630
H4370       H  0.77262070  0.37103280  0.52293322     0.09530
H4371       H  0.84205325  0.35429348  0.47709285     0.07550
Br4372     Br  0.85888657  0.38443349  0.51041418    -0.03050
C4373       C  0.86166018  0.34289026  0.73098670    -0.09690
C4374       C  0.84330508  0.35887750  0.73034795     0.06510
C4375       C  0.83556123  0.37010277  0.74998724    -0.03460
C4376       C  0.84674589  0.36546125  0.77030707    -0.07910
C4377       C  0.86555752  0.34993269  0.77073062     0.05620
C4378       C  0.87316024  0.33874487  0.75105479    -0.02930
Br4379     Br  0.89927445  0.31831201  0.75066257    -0.02630
H4380       H  0.86753864  0.33407437  0.71563810     0.09530
H4381       H  0.84034569  0.37350106  0.78584893     0.07550
Br4382     Br  0.81035646  0.39175767  0.74971151    -0.03050
C4383       C  0.86754509  0.26030599  0.62529712    -0.09690
C4384       C  0.84357182  0.26415413  0.62662989     0.06510
C4385       C  0.82996632  0.24963599  0.64054764    -0.03460
C4386       C  0.84068031  0.23606090  0.65673144    -0.07910
C4387       C  0.86479085  0.23412341  0.65714332     0.05620
C4388       C  0.87826983  0.24575455  0.64089515    -0.02930
Br4389     Br  0.91116417  0.24180670  0.63941115    -0.02630
H4390       H  0.87822918  0.27070682  0.61397182     0.09530
H4391       H  0.82995031  0.22488629  0.66727745     0.07550
Br4392     Br  0.79725184  0.24531133  0.63732188    -0.03050
C4393       C  0.72263602  0.40994956  0.70488176    -0.09690
C4394       C  0.72618297  0.39013535  0.69113131     0.06510
C4395       C  0.71178905  0.37060114  0.69469235    -0.03460
C4396       C  0.69576508  0.37032555  0.71273089    -0.07910
C4397       C  0.69318993  0.38947605  0.72742244     0.05620
C4398       C  0.70621491  0.40975733  0.72284224    -0.02930
Br4399     Br  0.70355154  0.43672954  0.74197480    -0.02630
H4400       H  0.73353272  0.42509915  0.70253697     0.09530
H4401       H  0.68570958  0.35470509  0.71573787     0.07550
Br4402     Br  0.71360617  0.34351571  0.67550753    -0.03050
C4403       C  0.71783742  0.26417298  0.59665697    -0.09690
C4404       C  0.69484731  0.27091217  0.60022610     0.06510
C4405       C  0.68953670  0.29493621  0.60038879    -0.03460
C4406       C  0.70739438  0.31159445  0.59871502    -0.07910
C4407       C  0.73058227  0.30465122  0.59667246     0.05620
C4408       C  0.73548304  0.28072640  0.59456362    -0.02930
Br4409     Br  0.76629599  0.26982255  0.58915711    -0.02630
H4410       H  0.72222352  0.24584727  0.59618000     0.09530
H4411       H  0.70330849  0.32987963  0.60067013     0.07550
Br4412     Br  0.65872256  0.30590347  0.60565024    -0.03050
C4413       C  0.53002064  0.69543321  0.91745022    -0.09690
C4414       C  0.54004280  0.70130193  0.93874220     0.06510
C4415       C  0.56129965  0.69050073  0.94426440    -0.03460
C4416       C  0.57203959  0.67487541  0.92892121    -0.07910
C4417       C  0.56205667  0.66872916  0.90775826     0.05620
C4418       C  0.54059816  0.67922069  0.90225139    -0.02930
Br4419     Br  0.52579456  0.67322071  0.87353251    -0.02630
H4420       H  0.51384996  0.70343781  0.91258702     0.09530
H4421       H  0.58864701  0.66759873  0.93355108     0.07550
Br4422     Br  0.57748789  0.69774057  0.97205697    -0.03050
C4423       C  0.60126453  0.81344667  0.95592157    -0.09690
C4424       C  0.59299612  0.83271394  0.94338744     0.06510
C4425       C  0.56879118  0.83459709  0.94090897    -0.03460
C4426       C  0.55364868  0.81795830  0.95068462    -0.07910
C4427       C  0.56174915  0.79824993  0.96276414     0.05620
C4428       C  0.58611915  0.79649620  0.96551768    -0.02930
Br4429     Br  0.60002524  0.77138651  0.98215228    -0.02630
H4430       H  0.61974139  0.81104267  0.95757227     0.09530
H4431       H  0.53526817  0.82012316  0.94801744     0.07550
Br4432     Br  0.55554462  0.85924502  0.92313312    -0.03050
C4433       C  0.46313207  0.70188914  0.91563446    -0.09690
C4434       C  0.46133707  0.69893431  0.93962012     0.06510
C4435       C  0.44879525  0.67893342  0.94716023    -0.03460
C4436       C  0.43880675  0.66311584  0.93135220    -0.07910
C4437       C  0.44053117  0.66617673  0.90752736     0.05620
C4438       C  0.45286043  0.68604353  0.89989474    -0.02930
Br4439     Br  0.45483291  0.69299281  0.86787028    -0.02630
H4440       H  0.47213033  0.71696599  0.90897024     0.09530
H4441       H  0.42838693  0.64889359  0.93783725     0.07550
Br4442     Br  0.44202887  0.67306352  0.97882605    -0.03050
C4443       C  0.42284350  0.83364362  0.94918572    -0.09690
C4444       C  0.40576686  0.82386584  0.93491898     0.06510
C4445       C  0.40395071  0.79920358  0.93486673    -0.03460
C4446       C  0.41930851  0.78518898  0.94753337    -0.07910
C4447       C  0.43727711  0.79477289  0.96065010     0.05620
C4448       C  0.43845943  0.81948789  0.96179728    -0.02930
Br4449     Br  0.46065973  0.83498206  0.98080251    -0.02630
H4450       H  0.42463761  0.85238862  0.94993378     0.09530
H4451       H  0.41756141  0.76644551  0.94647257     0.07550
Br4452     Br  0.38034358  0.78309326  0.91833811    -0.03050
C4453       C  0.45331087  0.66160679  0.07545621    -0.09690
C4454       C  0.44283433  0.67003809  0.09553798     0.06510
C4455       C  0.44422125  0.69435835  0.09949900    -0.03460
C4456       C  0.45479933  0.70951916  0.08346280    -0.07910
C4457       C  0.46421900  0.70136360  0.06267712     0.05620
C4458       C  0.46379162  0.67676224  0.05925407    -0.02930
Br4459     Br  0.47718375  0.66228194  0.03283521    -0.02630
H4460       H  0.45252091  0.64314063  0.07181176     0.09530
H4461       H  0.45498017  0.72800940  0.08705927     0.07550
Br4462     Br  0.43213371  0.70791837  0.12698118    -0.03050
C4463       C  0.42629921  0.81998104  0.07261873    -0.09690
C4464       C  0.40787285  0.83053058  0.06060926     0.06510
C4465       C  0.40529638  0.82395417  0.03730775    -0.03460
C4466       C  0.42040327  0.80733563  0.02696241    -0.07910
C4467       C  0.43883812  0.79701969  0.03916311     0.05620
C4468       C  0.44158614  0.80390702  0.06224781    -0.02930
Br4469     Br  0.46572070  0.79106406  0.08085352    -0.02630
H4470       H  0.42892734  0.82424353  0.09049036     0.09530
H4471       H  0.41779380  0.80261447  0.00920796     0.07550
Br4472     Br  0.38079988  0.83621545  0.01909394    -0.03050
C4473       C  0.54483147  0.70939716  0.08320246    -0.09690
C4474       C  0.53941526  0.70172379  0.06085376     0.06510
C4475       C  0.54548916  0.67824656  0.05545741    -0.03460
C4476       C  0.55653574  0.66374015  0.07176201    -0.07910
C4477       C  0.56259811  0.67183462  0.09364849     0.05620
C4478       C  0.55649754  0.69502357  0.09915430    -0.02930
Br4479     Br  0.56427248  0.70813549  0.12834475    -0.02630
H4480       H  0.54072345  0.72707419  0.08816176     0.09530
H4481       H  0.56155356  0.64629331  0.06680758     0.07550
Br4482     Br  0.54080569  0.66470165  0.02575667    -0.03050
C4483       C  0.59673974  0.80522708  0.06072296    -0.09690
C4484       C  0.59411762  0.82954417  0.05838369     0.06510
C4485       C  0.57627516  0.83730809  0.04376688    -0.03460
C4486       C  0.56102747  0.82111534  0.03312681    -0.07910
C4487       C  0.56309581  0.79675607  0.03644875     0.05620
C4488       C  0.58166820  0.78909682  0.05029979    -0.02930
Br4489     Br  0.58612421  0.75690619  0.05806715    -0.02630
H4490       H  0.61026748  0.79856735  0.07168460     0.09530
H4491       H  0.54712871  0.82769060  0.02256399     0.07550
Br4492     Br  0.57107958  0.86984478  0.03911986    -0.03050
C4493       C  0.89937725  0.54155719  0.68348768    -0.09690
C4494       C  0.90770890  0.55766835  0.66720910     0.06510
C4495       C  0.93148004  0.56325277  0.66813292    -0.03460
C4496       C  0.94622714  0.55277661  0.68439013    -0.07910
C4497       C  0.93800412  0.53706410  0.70112046     0.05620
C4498       C  0.91407556  0.53154393  0.70035116    -0.02930
Br4499     Br  0.90035418  0.51048773  0.72183638    -0.02630
H4500       H  0.88111527  0.53744524  0.68374097     0.09530
H4501       H  0.96429523  0.55769538  0.68439306     0.07550
Br4502     Br  0.94467918  0.58587285  0.64778313    -0.03050
C4503       C  0.95935749  0.55837209  0.81925265    -0.09690
C4504       C  0.95970817  0.56321486  0.79545460     0.06510
C4505       C  0.94840018  0.58396723  0.78837626    -0.03460
C4506       C  0.93731861  0.59867631  0.80449925    -0.07910
C4507       C  0.93708352  0.59379162  0.82816688     0.05620
C4508       C  0.94828327  0.57320899  0.83532076    -0.02930
Br4509     Br  0.94687854  0.56339850  0.86664026    -0.02630
H4510       H  0.96737763  0.54258033  0.82548195     0.09530
H4511       H  0.92832535  0.61397263  0.79835132     0.07550
Br4512     Br  0.94605357  0.59285053  0.75678087    -0.03050
C4513       C  0.92756989  0.44315303  0.66627447    -0.09690
C4514       C  0.90682946  0.43405760  0.67501134     0.06510
C4515       C  0.90163954  0.43859967  0.69825392    -0.03460
C4516       C  0.91722311  0.45106055  0.71231189    -0.07910
C4517       C  0.93860189  0.45935038  0.70398647     0.05620
C4518       C  0.94335079  0.45546082  0.68031077    -0.02930
Br4519     Br  0.97121553  0.46589269  0.66563660    -0.02630
H4520       H  0.93202418  0.43985578  0.64855292     0.09530
H4521       H  0.91273037  0.45376318  0.73011289     0.07550
Br4522     Br  0.87307778  0.42839122  0.71159807    -0.03050
C4523       C  0.95041571  0.42900658  0.83802773    -0.09690
C4524       C  0.94314196  0.40683452  0.83095224     0.06510
C4525       C  0.94758446  0.40048716  0.80794502    -0.03460
C4526       C  0.95819860  0.41621205  0.79253880    -0.07910
C4527       C  0.96440901  0.43899415  0.79915113     0.05620
C4528       C  0.96081922  0.44493778  0.82263573    -0.02930
Br4529     Br  0.96899594  0.47469166  0.83526722    -0.02630
H4530       H  0.94683345  0.43451937  0.85540602     0.09530
H4531       H  0.96078012  0.41076949  0.77497450     0.07550
Br4532     Br  0.93870944  0.37047714  0.79649309    -0.03050
C4533       C  0.06880100  0.47097543  0.68283746    -0.09690
C4534       C  0.06156056  0.45982257  0.70314928     0.06510
C4535       C  0.06940616  0.43685714  0.70673436    -0.03460
C4536       C  0.08440168  0.42598563  0.69100499    -0.07910
C4537       C  0.09201699  0.43695957  0.67068388     0.05620
C4538       C  0.08378240  0.45996327  0.66681286    -0.02930
Br4539     Br  0.09099302  0.47713341  0.63966038    -0.02630
H4540       H  0.06257085  0.48836246  0.67925443     0.09530
H4541       H  0.08977125  0.40833223  0.69467488     0.07550
Br4542     Br  0.05845796  0.41831759  0.73175349    -0.03050
C4543       C  0.07497238  0.42112807  0.81260640    -0.09690
C4544       C  0.06248308  0.40976017  0.83020510     0.06510
C4545       C  0.03836699  0.41451327  0.83125749    -0.03460
C4546       C  0.02769131  0.42912865  0.81469319    -0.07910
C4547       C  0.04038902  0.43991319  0.79699807     0.05620
C4548       C  0.06444865  0.43618414  0.79671849    -0.02930
Br4549     Br  0.08432850  0.45267772  0.77603905    -0.02630
H4550       H  0.09347786  0.41877147  0.81130319     0.09530
H4551       H  0.00937106  0.43246583  0.81598692     0.07550
Br4552     Br  0.01888440  0.40303818  0.85522761    -0.03050
C4553       C  0.09923133  0.54479934  0.68262909    -0.09690
C4554       C  0.09045617  0.56106612  0.66673096     0.06510
C4555       C  0.06650934  0.56579082  0.66781052    -0.03460
C4556       C  0.05210717  0.55460306  0.68398230    -0.07910
C4557       C  0.06080513  0.53890146  0.70045439     0.05620
C4558       C  0.08483220  0.53393288  0.69931543    -0.02930
Br4559     Br  0.09900731  0.51236442  0.71998950    -0.02630
H4560       H  0.11760302  0.54126332  0.68277944     0.09530
H4561       H  0.03392390  0.55902156  0.68419009     0.07550
Br4562     Br  0.05263187  0.58843967  0.64799656    -0.03050
C4563       C  0.05971146  0.55396599  0.80741816    -0.09690
C4564       C  0.04041574  0.56221360  0.79516884     0.06510
C4565       C  0.03333518  0.58541044  0.79952914    -0.03460
C4566       C  0.04519986  0.59943768  0.81575242    -0.07910
C4567       C  0.06478417  0.59118412  0.82754956     0.05620
C4568       C  0.07204010  0.56816987  0.82284061    -0.02930
Br4569     Br  0.09922606  0.55523203  0.83667945    -0.02630
H4570       H  0.06579739  0.53639884  0.80443068     0.09530
H4571       H  0.03968936  0.61724638  0.81837847     0.07550
Br4572     Br  0.00768128  0.59892071  0.78386690    -0.03050
C4573       C  0.91682564  0.69703253  0.46719403    -0.09690
C4574       C  0.93945937  0.70148426  0.45920945     0.06510
C4575       C  0.94639640  0.68981076  0.43891209    -0.03460
C4576       C  0.93114670  0.67473250  0.42719268    -0.07910
C4577       C  0.90869979  0.67001618  0.43522717     0.05620
C4578       C  0.90170279  0.68141718  0.45561311    -0.02930
Br4579     Br  0.87104658  0.67750647  0.46739113    -0.02630
H4580       H  0.91083214  0.70571793  0.48254409     0.09530
H4581       H  0.93687927  0.66674955  0.41137583     0.07550
Br4582     Br  0.97609165  0.69503574  0.42512854    -0.03050
C4583       C  0.92884492  0.82802811  0.43217212    -0.09690
C4584       C  0.93248235  0.82640422  0.40844689     0.06510
C4585       C  0.94734551  0.80859842  0.40057110    -0.03460
C4586       C  0.95826961  0.79319338  0.41615671    -0.07910
C4587       C  0.95525897  0.79527810  0.44010479     0.05620
C4588       C  0.93994722  0.81300477  0.44783561    -0.02930
Br4589     Br  0.93159032  0.81667865  0.47947156    -0.02630
H4590       H  0.91666648  0.84075666  0.43860801     0.09530
H4591       H  0.96963114  0.77984849  0.40948969     0.07550
Br4592     Br  0.95284440  0.80447583  0.36847338    -0.03050
C4593       C  0.91795141  0.71024688  0.55229226    -0.09690
C4594       C  0.93635521  0.70172327  0.53890408     0.06510
C4595       C  0.93810622  0.67710967  0.53679937    -0.03460
C4596       C  0.92249793  0.66204215  0.54841341    -0.07910
C4597       C  0.90485256  0.67066805  0.56272536     0.05620
C4598       C  0.90259344  0.69523714  0.56407030    -0.02930
Br4599     Br  0.87811338  0.70961990  0.58101129    -0.02630
H4600       H  0.91576262  0.72887265  0.55415179     0.09530
H4601       H  0.92465458  0.64339856  0.54676270     0.07550
Br4602     Br  0.96113537  0.66287273  0.51779369    -0.03050
C4603       C  0.94978557  0.78911206  0.58225387    -0.09690
C4604       C  0.96090561  0.79747863  0.56240350     0.06510
C4605       C  0.96136863  0.82208915  0.55939023    -0.03460
C4606       C  0.95024345  0.83717694  0.57519270    -0.07910
C4607       C  0.93810126  0.82858278  0.59429958     0.05620
C4608       C  0.93847428  0.80417600  0.59781606    -0.02930
Br4609     Br  0.92417475  0.79033189  0.62409925    -0.02630
H4610       H  0.94920613  0.77054780  0.58541607     0.09530
H4611       H  0.95038265  0.85574550  0.57201287     0.07550
Br4612     Br  0.97704227  0.83649491  0.53412800    -0.03050
C4613       C  0.06565826  0.68242773  0.46730229    -0.09690
C4614       C  0.06241217  0.70584464  0.46037724     0.06510
C4615       C  0.07520740  0.71332074  0.44116250    -0.03460
C4616       C  0.09048676  0.69827474  0.42967315    -0.07910
C4617       C  0.09348473  0.67473462  0.43594807     0.05620
C4618       C  0.08099645  0.66707556  0.45548005    -0.02930
Br4619     Br  0.08335973  0.63566450  0.46611608    -0.02630
H4620       H  0.05602300  0.67591551  0.48185856     0.09530
H4621       H  0.09968120  0.70523715  0.41507720     0.07550
Br4622     Br  0.07042485  0.74306441  0.42750615    -0.03050
C4623       C  0.06554750  0.79770188  0.44367803    -0.09690
C4624       C  0.04138863  0.79919758  0.44280319     0.06510
C4625       C  0.03216035  0.81731806  0.42911041    -0.03460
C4626       C  0.04648759  0.83071959  0.41437402    -0.07910
C4627       C  0.07065807  0.82784351  0.41387256     0.05620
C4628       C  0.08004811  0.81178894  0.43002501    -0.02930
Br4629     Br  0.11234301  0.80955510  0.43712425    -0.02630
H4630       H  0.07336997  0.78570097  0.45568494     0.09530
H4631       H  0.03864523  0.84380159  0.40354496     0.07550
Br4632     Br  0.00092506  0.82694569  0.43203586    -0.03050
C4633       C  0.09870355  0.68525790  0.54466838    -0.09690
C4634       C  0.09010330  0.66863198  0.56027289     0.06510
C4635       C  0.06604449  0.66849307  0.56427026    -0.03460
C4636       C  0.05131539  0.68432993  0.55298792    -0.07910
C4637       C  0.05982065  0.70150068  0.53786199     0.05620
C4638       C  0.08396683  0.70148261  0.53357494    -0.02930
Br4639     Br  0.09788337  0.72301412  0.51262657    -0.02630
H4640       H  0.11713419  0.68633796  0.54180613     0.09530
H4641       H  0.03302575  0.68374070  0.55687135     0.07550
Br4642     Br  0.05249244  0.64751171  0.58603382    -0.03050
C4643       C  0.03609353  0.82106220  0.55976200    -0.09690
C4644       C  0.03583219  0.79681618  0.56428960     0.06510
C4645       C  0.04596256  0.78963290  0.58530424    -0.03460
C4646       C  0.05622925  0.80603435  0.60034665    -0.07910
C4647       C  0.05657107  0.83013400  0.59567489     0.05620
C4648       C  0.04613969  0.83743733  0.57504402    -0.02930
Br4649     Br  0.04720034  0.86943527  0.56591808    -0.02630
H4650       H  0.02894094  0.82741088  0.54383697     0.09530
H4651       H  0.06468088  0.79973907  0.61568521     0.07550
Br4652     Br  0.04816634  0.75750304  0.59403414    -0.03050
C4653       C  0.68020067  0.46294518  0.93843147    -0.09690
C4654       C  0.70433908  0.45924222  0.93734639     0.06510
C4655       C  0.71226623  0.44339270  0.92044886    -0.03460
C4656       C  0.69657053  0.43198652  0.90557375    -0.07910
C4657       C  0.67252568  0.43605527  0.90634773     0.05620
C4658       C  0.66456582  0.45204122  0.92303318    -0.02930
Br4659     Br  0.63228939  0.45828518  0.92679912    -0.02630
H4660       H  0.67334167  0.47444321  0.95145702     0.09530
H4661       H  0.70329854  0.41950767  0.89336741     0.07550
Br4662     Br  0.74419593  0.43472421  0.91816286    -0.03050
C4663       C  0.79813700  0.41616365  0.96270037    -0.09690
C4664       C  0.79927238  0.44059147  0.96006594     0.06510
C4665       C  0.81746274  0.44943092  0.94608713    -0.03460
C4666       C  0.83340272  0.43433038  0.93543066    -0.07910
C4667       C  0.83231704  0.41009291  0.93816578     0.05620
C4668       C  0.81435535  0.40111000  0.95203680    -0.02930
Br4669     Br  0.81055826  0.36818974  0.95570974    -0.02630
H4670       H  0.78437298  0.40864344  0.97285825     0.09530
H4671       H  0.84631730  0.44161539  0.92405448     0.07550
Br4672     Br  0.82059581  0.48184602  0.93854596    -0.03050
C4673       C  0.68616996  0.52765340  0.92696863    -0.09690
C4674       C  0.70339712  0.54049611  0.93846719     0.06510
C4675       C  0.70437129  0.56459908  0.93401238    -0.03460
C4676       C  0.68855977  0.57524054  0.91892805    -0.07910
C4677       C  0.67103960  0.56265885  0.90736537     0.05620
C4678       C  0.67031262  0.53826991  0.91155596    -0.02930
Br4679     Br  0.64871087  0.51805774  0.89673644    -0.02630
H4680       H  0.68508170  0.50914783  0.92987800     0.09530
H4681       H  0.69012203  0.59383274  0.91634565     0.07550
Br4682     Br  0.72688207  0.58418373  0.94844842    -0.03050
C4683       C  0.80780074  0.55364698  0.94066177    -0.09690
C4684       C  0.79619913  0.56186039  0.96026690     0.06510
C4685       C  0.80126868  0.58487750  0.96744942    -0.03460
C4686       C  0.81798928  0.59855134  0.95570181    -0.07910
C4687       C  0.82929968  0.59027552  0.93590478     0.05620
C4688       C  0.82353003  0.56759293  0.92832718    -0.02930
Br4689     Br  0.83672762  0.55443943  0.90107864    -0.02630
H4690       H  0.80415383  0.53626467  0.93444568     0.09530
H4691       H  0.82146610  0.61609040  0.96156239     0.07550
Br4692     Br  0.78588071  0.59859420  0.99306199    -0.03050
C4693       C  0.68789430  0.44915578  0.09876766    -0.09690
C4694       C  0.67281608  0.43186108  0.09043100     0.06510
C4695       C  0.67337825  0.42742430  0.06662979    -0.03460
C4696       C  0.68806304  0.44026857  0.05189023    -0.07910
C4697       C  0.70351701  0.45738058  0.06016153     0.05620
C4698       C  0.70309625  0.46164068  0.08411267    -0.02930
Br4699     Br  0.72278734  0.48431047  0.09803637    -0.02630
H4700       H  0.68858469  0.45235243  0.11698163     0.09530
H4701       H  0.68794410  0.43615882  0.03379535     0.07550
Br4702     Br  0.65482031  0.40323504  0.05344739    -0.03050
C4703       C  0.80577908  0.41916112  0.02898360    -0.09690
C4704       C  0.79825873  0.44026403  0.03892208     0.06510
C4705       C  0.80782443  0.44654058  0.06030569    -0.03460
C4706       C  0.82395605  0.43207419  0.07127861    -0.07910
C4707       C  0.83148897  0.41094094  0.06161457     0.05620
C4708       C  0.82230307  0.40468473  0.04001516    -0.02930
Br4709     Br  0.83061304  0.37586080  0.02573164    -0.02630
H4710       H  0.79875525  0.41384873  0.01265292     0.09530
H4711       H  0.83019454  0.43714409  0.08803762     0.07550
Br4712     Br  0.79794293  0.47389914  0.07649615    -0.03050
C4713       C  0.67770463  0.53999562  0.05618965    -0.09690
C4714       C  0.70134915  0.53754540  0.06201878     0.06510
C4715       C  0.70800421  0.54603109  0.08394302    -0.03460
C4716       C  0.69174457  0.55692901  0.09855285    -0.07910
C4717       C  0.66847925  0.56015825  0.09228043     0.05620
C4718       C  0.66156646  0.55113022  0.07087810    -0.02930
Br4719     Br  0.63059860  0.55536517  0.06017143    -0.02630
H4720       H  0.67174728  0.53385378  0.03969343     0.09530
H4721       H  0.69761074  0.56383335  0.11479203     0.07550
Br4722     Br  0.73933025  0.54523218  0.09478005    -0.03050
C4723       C  0.81988902  0.55914423  0.03940479    -0.09690
C4724       C  0.79574139  0.56319436  0.04005026     0.06510
C4725       C  0.78842725  0.58343918  0.05204933    -0.03460
C4726       C  0.80455692  0.59797827  0.06347435    -0.07910
C4727       C  0.82857105  0.59380167  0.06289374     0.05620
C4728       C  0.83604019  0.57415880  0.05032136    -0.02930
Br4729     Br  0.86810206  0.56605459  0.04905522    -0.02630
H4730       H  0.82636239  0.54397243  0.03047724     0.09530
H4731       H  0.79816691  0.61275798  0.07309862     0.07550
Br4732     Br  0.75655335  0.59224026  0.05418301    -0.03050
C4733       C  0.44894897  0.89904465  0.68912983    -0.09690
C4734       C  0.44609266  0.90648867  0.66629355     0.06510
C4735       C  0.45276855  0.92950227  0.66113620    -0.03460
C4736       C  0.46181291  0.94434135  0.67831954    -0.07910
C4737       C  0.46476239  0.93701578  0.70130714     0.05620
C4738       C  0.45819172  0.91372170  0.70636373    -0.02930
Br4739     Br  0.45935241  0.90109168  0.73676173    -0.02630
H4740       H  0.44293115  0.88184962  0.69389493     0.09530
H4741       H  0.46599474  0.96208311  0.67364615     0.07550
Br4742     Br  0.44786070  0.94210408  0.63116696    -0.03050
C4743       C  0.44653347  0.93842191  0.80867477    -0.09690
C4744       C  0.43857470  0.95755100  0.79575086     0.06510
C4745       C  0.41512852  0.96404399  0.79892623    -0.03460
C4746       C  0.40057089  0.95164619  0.81441007    -0.07910
C4747       C  0.40854844  0.93214080  0.82682378     0.05620
C4748       C  0.43190183  0.92567868  0.82349945    -0.02930
Br4749     Br  0.44484154  0.89921200  0.83883119    -0.02630
H4750       H  0.46428554  0.93280176  0.80674329     0.09530
H4751       H  0.38267232  0.95682494  0.81612934     0.07550
Br4752     Br  0.40216392  0.98995923  0.78286899    -0.03050
C4753       C  0.55134550  0.92225416  0.66588693    -0.09690
C4754       C  0.56802358  0.90689434  0.67486125     0.06510
C4755       C  0.57094435  0.90685702  0.69894782    -0.03460
C4756       C  0.55796585  0.92183551  0.71308492    -0.07910
C4757       C  0.54161374  0.93749935  0.70431299     0.05620
C4758       C  0.53862945  0.93764180  0.68016175    -0.02930
Br4759     Br  0.51775654  0.95869868  0.66547567    -0.02630
H4760       H  0.54872340  0.92291053  0.64754323     0.09530
H4761       H  0.56150335  0.92183911  0.73113962     0.07550
Br4762     Br  0.59177230  0.88614545  0.71418162    -0.03050
C4763       C  0.56834596  0.97082386  0.81802349    -0.09690
C4764       C  0.56026405  0.95872501  0.79858197     0.06510
C4765       C  0.56574662  0.93486559  0.79713568    -0.03460
C4766       C  0.58057538  0.92432718  0.81311957    -0.07910
C4767       C  0.58960657  0.93640125  0.83218136     0.05620
C4768       C  0.58260006  0.95999049  0.83474315    -0.02930
Br4769     Br  0.58988040  0.97802113  0.86132402    -0.02630
H4770       H  0.56315900  0.98875221  0.82049351     0.09530
H4771       H  0.58439972  0.90602897  0.81085361     0.07550
Br4772     Br  0.55085851  0.91468585  0.77574410    -0.03050
C4773       C  0.45386363  0.08250000  0.71098624    -0.09690
C4774       C  0.46322694  0.06139293  0.70292108     0.06510
C4775       C  0.46105668  0.05693030  0.67897398    -0.03460
C4776       C  0.44954507  0.07280368  0.66432496    -0.07910
C4777       C  0.43928646  0.09323263  0.67272793     0.05620
C4778       C  0.44185668  0.09797467  0.69642631    -0.02930
Br4779     Br  0.42904063  0.12544867  0.71012003    -0.02630
H4780       H  0.45503596  0.08667068  0.72903008     0.09530
H4781       H  0.44749823  0.06845452  0.64639659     0.07550
Br4782     Br  0.47244763  0.02910293  0.66478003    -0.03050
C4783       C  0.42033315  0.05228434  0.78696394    -0.09690
C4784       C  0.43854856  0.03910240  0.79619858     0.06510
C4785       C  0.43989713  0.03801347  0.82051449    -0.03460
C4786       C  0.42419052  0.05063235  0.83459129    -0.07910
C4787       C  0.40677727  0.06485025  0.82517319     0.05620
C4788       C  0.40483488  0.06493130  0.80092195    -0.02930
Br4789     Br  0.38078534  0.08149616  0.78542832    -0.02630
H4790       H  0.41841843  0.05332900  0.76854723     0.09530
H4791       H  0.42616069  0.04992995  0.85301099     0.07550
Br4792     Br  0.46249439  0.01908629  0.83561159    -0.03050
C4793       C  0.54909074  0.08259683  0.71161286    -0.09690
C4794       C  0.54078510  0.06096493  0.70363849     0.06510
C4795       C  0.54436025  0.05603316  0.67992741    -0.03460
C4796       C  0.55590283  0.07206673  0.66542634    -0.07910
C4797       C  0.56494528  0.09311136  0.67375451     0.05620
C4798       C  0.56124337  0.09820893  0.69721165    -0.02930
Br4799     Br  0.57271505  0.12640650  0.71065732    -0.02630
H4800       H  0.54691800  0.08713530  0.72947885     0.09530
H4801       H  0.55891142  0.06743233  0.64769652     0.07550
Br4802     Br  0.53508967  0.02732934  0.66586599    -0.03050
C4803       C  0.55484839  0.05864710  0.81049533    -0.09690
C4804       C  0.56250351  0.03948213  0.79745563     0.06510
C4805       C  0.58589621  0.03263658  0.80042371    -0.03460
C4806       C  0.60047226  0.04429330  0.81636446    -0.07910
C4807       C  0.59278276  0.06378126  0.82895247     0.05620
C4808       C  0.56968450  0.07099244  0.82539074    -0.02930
Br4809     Br  0.55740591  0.09804222  0.84033071    -0.02630
H4810       H  0.53725437  0.06470793  0.80847697     0.09530
H4811       H  0.61824266  0.03870587  0.81814806     0.07550
Br4812     Br  0.59905264  0.00765889  0.78304518    -0.03050
C4813       C  0.29105179  0.54176187  0.91591205    -0.09690
C4814       C  0.29660447  0.54020810  0.93945883     0.06510
C4815       C  0.31765450  0.55122679  0.94631940    -0.03460
C4816       C  0.33181366  0.56318956  0.93032595    -0.07910
C4817       C  0.32601416  0.56493230  0.90703438     0.05620
C4818       C  0.30531407  0.55389079  0.90001774    -0.02930
Br4819     Br  0.29557857  0.55544205  0.86872445    -0.02630
H4820       H  0.27527177  0.53379292  0.90977434     0.09530
H4821       H  0.34725077  0.57190553  0.93636698     0.07550
Br4822     Br  0.32796635  0.55230936  0.97756581    -0.03050
C4823       C  0.16795687  0.58188887  0.95352771    -0.09690
C4824       C  0.17433439  0.58722970  0.93072053     0.06510
C4825       C  0.19563156  0.57697894  0.92304854    -0.03460
C4826       C  0.21044060  0.56517542  0.93823282    -0.07910
C4827       C  0.20408192  0.55994711  0.96068827     0.05620
C4828       C  0.18186188  0.56746028  0.96783542    -0.02930
Br4829     Br  0.16896066  0.55718923  0.99621563    -0.02630
H4830       H  0.15154088  0.58807503  0.96000014     0.09530
H4831       H  0.22655297  0.55814616  0.93174995     0.07550
Br4832     Br  0.20555691  0.57364880  0.89192475    -0.03050
C4833       C  0.31113898  0.42189721  0.92262555    -0.09690
C4834       C  0.32696624  0.43365672  0.90830966     0.06510
C4835       C  0.32727113  0.45835277  0.91012348    -0.03460
C4836       C  0.31179062  0.47020547  0.92527909    -0.07910
C4837       C  0.29570713  0.45800450  0.93910347     0.05620
C4838       C  0.29603862  0.43354090  0.93757788    -0.02930
Br4839     Br  0.27645431  0.41454948  0.95604378    -0.02630
H4840       H  0.31045860  0.40311481  0.92264877     0.09530
H4841       H  0.31244487  0.48901160  0.92631820     0.07550
Br4842     Br  0.34821043  0.47678092  0.89231533    -0.03050
C4843       C  0.18255835  0.44706469  0.95032048    -0.09690
C4844       C  0.20111587  0.43765322  0.96301814     0.06510
C4845       C  0.20203562  0.41294876  0.96474940    -0.03460
C4846       C  0.18513257  0.39879688  0.95396837    -0.07910
C4847       C  0.16704840  0.40842116  0.94096063     0.05620
C4848       C  0.16610882  0.43287803  0.93919338    -0.02930
Br4849     Br  0.14294075  0.44777081  0.92090145    -0.02630
H4850       H  0.18116573  0.46574470  0.94829937     0.09530
H4851       H  0.18660710  0.38004330  0.95513524     0.07550
Br4852     Br  0.22538761  0.39705480  0.98193538    -0.03050
C4853       C  0.29806904  0.46126158  0.08477133    -0.09690
C4854       C  0.29874104  0.45704448  0.06089140     0.06510
C4855       C  0.31658776  0.44196943  0.05296711    -0.03460
C4856       C  0.33259172  0.43182921  0.06831393    -0.07910
C4857       C  0.33210681  0.43625673  0.09198720     0.05620
C4858       C  0.31441103  0.45117685  0.10007739    -0.02930
Br4859     Br  0.31107232  0.45708922  0.13218719    -0.02630
H4860       H  0.28475978  0.47250441  0.09164523     0.09530
H4861       H  0.34539397  0.41987086  0.06164071     0.07550
Br4862     Br  0.31958134  0.43295451  0.02141887    -0.03050
C4863       C  0.19058794  0.42032146  0.02908269    -0.09690
C4864       C  0.20261544  0.43762476  0.04141889     0.06510
C4865       C  0.19734930  0.43971883  0.06493370    -0.03460
C4866       C  0.18103833  0.42490545  0.07549475    -0.07910
C4867       C  0.16913356  0.40728556  0.06338392     0.05620
C4868       C  0.17441315  0.40508350  0.03974272    -0.02930
Br4869     Br  0.16156120  0.38068868  0.02137244    -0.02630
H4870       H  0.19355701  0.41875490  0.01097030     0.09530
H4871       H  0.17779630  0.42718375  0.09362015     0.07550
Br4872     Br  0.21260060  0.46227044  0.08380382    -0.03050
C4873       C  0.29232342  0.55973630  0.06969686    -0.09690
C4874       C  0.29907182  0.53818804  0.06090959     0.06510
C4875       C  0.32155819  0.53029173  0.06655836    -0.03460
C4876       C  0.33581456  0.54306424  0.08193608    -0.07910
C4877       C  0.32911745  0.56499447  0.09063120     0.05620
C4878       C  0.30713109  0.57343439  0.08323022    -0.02930
Br4879     Br  0.29568968  0.60409417  0.08855184    -0.02630
H4880       H  0.27563508  0.56670153  0.06481608     0.09530
H4881       H  0.35266175  0.53621846  0.08629644     0.07550
Br4882     Br  0.33406534  0.50274816  0.05309672    -0.03050
C4883       C  0.18146703  0.56933248  0.07768402    -0.09690
C4884       C  0.17482475  0.59107050  0.06875389     0.06510
C4885       C  0.18470312  0.59770591  0.04750840    -0.03460
C4886       C  0.20066752  0.58287626  0.03596948    -0.07910
C4887       C  0.20655102  0.56067324  0.04464365     0.05620
C4888       C  0.19670616  0.55431739  0.06595244    -0.02930
Br4889     Br  0.20499015  0.52592051  0.08102884    -0.02630
H4890       H  0.17488523  0.56397666  0.09423496     0.09530
H4891       H  0.20802498  0.58849754  0.01983651     0.07550
Br4892     Br  0.17771968  0.62731702  0.03414751    -0.03050
C4893       C  0.43655511  0.33368962  0.92975287    -0.09690
C4894       C  0.43795663  0.33005184  0.90599146     0.06510
C4895       C  0.45138115  0.31089718  0.89853359    -0.03460
C4896       C  0.46264257  0.29595885  0.91443417    -0.07910
C4897       C  0.46103377  0.29934458  0.93838877     0.05620
C4898       C  0.44781504  0.31895677  0.94571608    -0.02930
Br4899     Br  0.44258628  0.32611767  0.97739103    -0.02630
H4900       H  0.42581913  0.34771966  0.93608796     0.09530
H4901       H  0.47247678  0.28135855  0.90793308     0.07550
Br4902     Br  0.45418138  0.30409812  0.86654177    -0.03050
C4903       C  0.41835861  0.19933562  0.96589304    -0.09690
C4904       C  0.44098558  0.20364357  0.95786371     0.06510
C4905       C  0.44821335  0.19144011  0.93800521    -0.03460
C4906       C  0.43317162  0.17603403  0.92663331    -0.07910
C4907       C  0.41064802  0.17165523  0.93453764     0.05620
C4908       C  0.40337498  0.18346200  0.95455804    -0.02930
Br4909     Br  0.37260591  0.17962999  0.96607179    -0.02630
H4910       H  0.41226885  0.20834464  0.98100237     0.09530
H4911       H  0.43899494  0.16779440  0.91097259     0.07550
Br4912     Br  0.47793035  0.19648514  0.92415278    -0.03050
C4913       C  0.54071149  0.29513806  0.91639609    -0.09690
C4914       C  0.53953166  0.30040784  0.93998049     0.06510
C4915       C  0.54907227  0.32219086  0.94697048    -0.03460
C4916       C  0.55943337  0.33739429  0.93087953    -0.07910
C4917       C  0.56096446  0.33176184  0.90753376     0.05620
C4918       C  0.55140896  0.31027006  0.90048940    -0.02930
Br4919     Br  0.55333902  0.30023184  0.86930632    -0.02630
H4920       H  0.53381861  0.27876622  0.91024224     0.09530
H4921       H  0.56725224  0.35341137  0.93687012     0.07550
Br4922     Br  0.55018480  0.33218283  0.97834722    -0.03050
C4923       C  0.55327738  0.18972342  0.93999476    -0.09690
C4924       C  0.56206537  0.20440958  0.95731406     0.06510
C4925       C  0.58608372  0.20301649  0.96187349    -0.03460
C4926       C  0.60025432  0.18697936  0.94992386    -0.07910
C4927       C  0.59134184  0.17243214  0.93265083     0.05620
C4928       C  0.56761146  0.17447311  0.92746163    -0.02930
Br4929     Br  0.55393260  0.15700815  0.90297092    -0.02630
H4930       H  0.53512550  0.19059309  0.93560040     0.09530
H4931       H  0.61856985  0.18659772  0.95352372     0.07550
Br4932     Br  0.60072710  0.22258465  0.98404084    -0.03050
C4933       C  0.56696170  0.30002489  0.09566281    -0.09690
C4934       C  0.56508944  0.32444178  0.09405262     0.06510
C4935       C  0.55011788  0.33331454  0.07705134    -0.03460
C4936       C  0.53850130  0.31805725  0.06172980    -0.07910
C4937       C  0.54098463  0.29356780  0.06297958     0.05620
C4938       C  0.55525155  0.28478213  0.08068565    -0.02930
Br4939     Br  0.56149759  0.25215966  0.08428312    -0.02630
H4940       H  0.57823188  0.29258732  0.10847024     0.09530
H4941       H  0.52773221  0.32547010  0.04845577     0.07550
Br4942     Br  0.54635367  0.36613925  0.07285908    -0.03050
C4943       C  0.57111454  0.16105446  0.05378597    -0.09690
C4944       C  0.59451591  0.16691922  0.05657994     0.06510
C4945       C  0.60154818  0.18903947  0.04861313    -0.03460
C4946       C  0.58550235  0.20484892  0.03887256    -0.07910
C4947       C  0.56188905  0.19919484  0.03602698     0.05620
C4948       C  0.55502897  0.17655542  0.04362966    -0.02930
Br4949     Br  0.52370525  0.16555246  0.04222806    -0.02630
H4950       H  0.56503109  0.14451924  0.06036375     0.09530
H4951       H  0.59160719  0.22189082  0.03381116     0.07550
Br4952     Br  0.63329729  0.19822551  0.05070075    -0.03050
C4953       C  0.47486581  0.30501575  0.07989205    -0.09690
C4954       C  0.46299242  0.29691852  0.06029271     0.06510
C4955       C  0.44067397  0.30591456  0.05630095    -0.03460
C4956       C  0.43064725  0.32202289  0.07144386    -0.07910
C4957       C  0.44222712  0.33025623  0.09106278     0.05620
C4958       C  0.46478773  0.32158167  0.09507303    -0.02930
Br4959     Br  0.48195092  0.33067392  0.12162802    -0.02630
H4960       H  0.49205116  0.29852338  0.08340245     0.09530
H4961       H  0.41324422  0.32794081  0.06792530     0.07550
Br4962     Br  0.42225334  0.29571377  0.03092762    -0.03050
C4963       C  0.44556902  0.18026246  0.04342395    -0.09690
C4964       C  0.43804239  0.20217427  0.03518666     0.06510
C4965       C  0.41407108  0.20707392  0.03741006    -0.03460
C4966       C  0.39907320  0.19128383  0.04863118    -0.07910
C4967       C  0.40687985  0.16992940  0.05754166     0.05620
C4968       C  0.43043386  0.16448782  0.05451122    -0.02930
Br4969     Br  0.44315578  0.13655104  0.06720093    -0.02630
H4970       H  0.46364837  0.17563180  0.04213262     0.09530
H4971       H  0.38118017  0.19616821  0.05117822     0.07550
Br4972     Br  0.40028575  0.23507799  0.02601110    -0.03050
C4973       C  0.93094945  0.31837077  0.57651323    -0.09690
C4974       C  0.91116065  0.32815531  0.56623779     0.06510
C4975       C  0.90652631  0.32163808  0.54330892    -0.03460
C4976       C  0.92157349  0.30642536  0.53124802    -0.07910
C4977       C  0.94145964  0.29699284  0.54159495     0.05620
C4978       C  0.94576770  0.30307224  0.56463527    -0.02930
Br4979     Br  0.97065631  0.28923563  0.58145565    -0.02630
H4980       H  0.93470720  0.32220325  0.59428125     0.09530
H4981       H  0.91748151  0.30167002  0.51381691     0.07550
Br4982     Br  0.87858420  0.33068490  0.52854581    -0.03050
C4983       C  0.92465611  0.18222668  0.57061685    -0.09690
C4984       C  0.93520241  0.17367735  0.59066149     0.06510
C4985       C  0.95842017  0.18012409  0.59469689    -0.03460
C4986       C  0.97018575  0.19513751  0.57928868    -0.07910
C4987       C  0.95953730  0.20363344  0.55924934     0.05620
C4988       C  0.93650664  0.19667255  0.55503830    -0.02930
Br4989     Br  0.91972692  0.20774155  0.52888249    -0.02630
H4990       H  0.90679575  0.17787326  0.56710621     0.09530
H4991       H  0.98770649  0.20018652  0.58303186     0.07550
Br4992     Br  0.97422163  0.17012384  0.62176231    -0.03050
C4993       C  0.91700800  0.29862645  0.46400970    -0.09690
C4994       C  0.94097600  0.29931553  0.45933353     0.06510
C4995       C  0.94846512  0.31594436  0.44283805    -0.03460
C4996       C  0.93253154  0.33083823  0.43176468    -0.07910
C4997       C  0.90873266  0.33024820  0.43660373     0.05620
C4998       C  0.90115219  0.31383916  0.45303876    -0.02930
Br4999     Br  0.86895565  0.31062707  0.45995070    -0.02630
H5000       H  0.91042535  0.28590090  0.47602809     0.09530
H5001       H  0.93875814  0.34249504  0.41854722     0.07550
Br5002     Br  0.97994114  0.31780498  0.43253446    -0.03050
C5003       C  0.94487613  0.18638816  0.44720604    -0.09690
C5004       C  0.95793893  0.20510617  0.43824554     0.06510
C5005       C  0.95902981  0.20709316  0.41400513    -0.03460
C5006       C  0.94779523  0.19060663  0.39977261    -0.07910
C5007       C  0.93510106  0.17187163  0.40893886     0.05620
C5008       C  0.93353880  0.17019259  0.43295802    -0.02930
Br5009     Br  0.91578281  0.14597471  0.44716098    -0.02630
H5010       H  0.94334783  0.18426802  0.46556677     0.09530
H5011       H  0.94857060  0.19276322  0.38137322     0.07550
Br5012     Br  0.97609006  0.23136839  0.39907158    -0.03050
C5013       C  0.10023537  0.30706317  0.44028369    -0.09690
C5014       C  0.09464291  0.33090439  0.43972342     0.06510
C5015       C  0.07404514  0.33768722  0.45082654    -0.03460
C5016       C  0.05931425  0.32089414  0.46116645    -0.07910
C5017       C  0.06455074  0.29677379  0.46127026     0.05620
C5018       C  0.08596685  0.29033719  0.45114696    -0.02930
Br5019     Br  0.09693626  0.25900247  0.45044936    -0.02630
H5020       H  0.11581154  0.30123809  0.43172553     0.09530
H5021       H  0.04332174  0.32681899  0.46881544     0.07550
Br5022     Br  0.06439174  0.36954700  0.45069042    -0.03050
C5023       C  0.06508202  0.20378739  0.43601416    -0.09690
C5024       C  0.04120015  0.20102538  0.43878323     0.06510
C5025       C  0.03137110  0.18084320  0.42860567    -0.03460
C5026       C  0.04453101  0.16606769  0.41404442    -0.07910
C5027       C  0.06840253  0.16941262  0.41066273     0.05620
C5028       C  0.07868355  0.18818849  0.42305912    -0.02930
Br5029     Br  0.11148373  0.19298686  0.42545347    -0.02630
H5030       H  0.07355160  0.21757865  0.44526034     0.09530
H5031       H  0.03613893  0.15132757  0.40602178     0.07550
Br5032     Br  0.00101035  0.17068261  0.43583403    -0.03050
C5033       C  0.08105579  0.30719847  0.52647242    -0.09690
C5034       C  0.06302247  0.29584544  0.53835935     0.06510
C5035       C  0.06009507  0.30138163  0.56171659    -0.03460
C5036       C  0.07461813  0.31760131  0.57261412    -0.07910
C5037       C  0.09257611  0.32929167  0.56096370     0.05620
C5038       C  0.09567965  0.32372784  0.53746552    -0.02930
Br5039     Br  0.12025225  0.33700682  0.51980055    -0.02630
H5040       H  0.08373542  0.30332810  0.50852725     0.09530
H5041       H  0.07176991  0.32102535  0.59063261     0.07550
Br5042     Br  0.03679340  0.28655707  0.58000435    -0.03050
C5043       C  0.06835904  0.16984609  0.56850788    -0.09690
C5044       C  0.06212174  0.16974470  0.59181573     0.06510
C5045       C  0.04553884  0.18631134  0.59886605    -0.03460
C5046       C  0.03563976  0.20219072  0.58306898    -0.07910
C5047       C  0.04127942  0.20178281  0.55956079     0.05620
C5048       C  0.05819375  0.18531480  0.55257028    -0.02930
Br5049     Br  0.07053538  0.18497888  0.52202715    -0.02630
H5050       H  0.08202522  0.15837321  0.56275788     0.09530
H5051       H  0.02369725  0.21519028  0.58934451     0.07550
Br5052     Br  0.03705083  0.18889088  0.63034823    -0.03050
C5053       C  0.31386705  0.94669150  0.44636628    -0.09690
C5054       C  0.29886922  0.93814753  0.46347398     0.06510
C5055       C  0.30109203  0.91426749  0.46932391    -0.03460
C5056       C  0.31771168  0.89985307  0.45825439    -0.07910
C5057       C  0.33222788  0.90844934  0.44073766     0.05620
C5058       C  0.32983223  0.93221606  0.43488498    -0.02930
Br5059     Br  0.34792576  0.94586926  0.41083075    -0.02630
H5060       H  0.31270983  0.96478412  0.44128906     0.09530
H5061       H  0.31865317  0.88160537  0.46278485     0.07550
Br5062     Br  0.28216011  0.90049071  0.49257928    -0.03050
C5063       C  0.18194560  0.96167261  0.43970291    -0.09690
C5064       C  0.20627737  0.95940924  0.43846460     0.06510
C5065       C  0.21511984  0.94480239  0.42095882    -0.03460
C5066       C  0.20010682  0.93264529  0.40612792    -0.07910
C5067       C  0.17586644  0.93458432  0.40747913     0.05620
C5068       C  0.16692027  0.94972909  0.42442122    -0.02930
Br5069     Br  0.13430174  0.95325625  0.42868304    -0.02630
H5070       H  0.17447666  0.97257023  0.45289981     0.09530
H5071       H  0.20758921  0.92103657  0.39359421     0.07550
Br5072     Br  0.24756901  0.93882627  0.41735082    -0.03050
C5073       C  0.28836397  0.92392265  0.55965134    -0.09690
C5074       C  0.29630389  0.93801246  0.54164054     0.06510
C5075       C  0.32010528  0.93640555  0.53598055    -0.03460
C5076       C  0.33501278  0.92112096  0.54808536    -0.07910
C5077       C  0.32705657  0.90748079  0.56657334     0.05620
C5078       C  0.30317462  0.90895811  0.57192256    -0.02930
Br5079     Br  0.28903549  0.89032293  0.59525721    -0.02630
H5080       H  0.27053707  0.92514555  0.56490283     0.09530
H5081       H  0.35311457  0.92047197  0.54343774     0.07550
Br5082     Br  0.33323756  0.95462763  0.51176148    -0.03050
C5083       C  0.18244707  0.97131434  0.57062129    -0.09690
C5084       C  0.20136923  0.95912008  0.56121996     0.06510
C5085       C  0.20286438  0.93515540  0.56632207    -0.03460
C5086       C  0.18695846  0.92435282  0.58123010    -0.07910
C5087       C  0.16812747  0.93634338  0.59115321     0.05620
C5088       C  0.16589080  0.96027798  0.58510398    -0.02930
Br5089     Br  0.14009237  0.97883067  0.59437478    -0.02630
H5090       H  0.18021217  0.98949574  0.56629221     0.09530
H5091       H  0.18921848  0.90597151  0.58461631     0.07550
Br5092     Br  0.22504277  0.91546347  0.55170143    -0.03050
C5093       C  0.31432466  0.09973749  0.54927953    -0.09690
C5094       C  0.32944361  0.09067449  0.56596032     0.06510
C5095       C  0.32812066  0.06657574  0.57050502    -0.03460
C5096       C  0.31255466  0.05217571  0.55846907    -0.07910
C5097       C  0.29693578  0.06112709  0.54214914     0.05620
C5098       C  0.29811169  0.08538666  0.53766771    -0.02930
Br5099     Br  0.27804453  0.10002320  0.51598208    -0.02630
H5100       H  0.31443834  0.11827183  0.54591009     0.09530
H5101       H  0.31212905  0.03380641  0.56261112     0.07550
Br5102     Br  0.34683150  0.05248535  0.59377252    -0.03050
C5103       C  0.19943940  0.03486196  0.58421781    -0.09690
C5104       C  0.20130616  0.04123994  0.56092216     0.06510
C5105       C  0.18686249  0.05974058  0.55342275    -0.03460
C5106       C  0.17141325  0.07097946  0.56863262    -0.07910
C5107       C  0.16932190  0.06448620  0.59178408     0.05620
C5108       C  0.18383968  0.04621600  0.59941847    -0.02930
Br5109     Br  0.18459522  0.03762239  0.63099187    -0.02630
H5110       H  0.21037746  0.02111766  0.59077135     0.09530
H5111       H  0.16138696  0.08556846  0.56239979     0.07550
Br5112     Br  0.18899922  0.07241984  0.52306844    -0.03050
C5113       C  0.29328066  0.08428795  0.45979112    -0.09690
C5114       C  0.30006808  0.06152538  0.46583542     0.06510
C5115       C  0.32364466  0.05553758  0.46160134    -0.03460
C5116       C  0.33887932  0.07138721  0.45071821    -0.07910
C5117       C  0.33164601  0.09364246  0.44391285     0.05620
C5118       C  0.30867009  0.10010470  0.44919575    -0.02930
Br5119     Br  0.29744665  0.13066087  0.44205651    -0.02630
H5120       H  0.27564691  0.08976651  0.46279434     0.09530
H5121       H  0.35622960  0.06578521  0.44649520     0.07550
Br5122     Br  0.33655004  0.02573725  0.46922262    -0.03050
C5123       C  0.21398212  0.04663575  0.41760197    -0.09690
C5124       C  0.20526728  0.03895381  0.43889972     0.06510
C5125       C  0.18122192  0.04266829  0.44294768    -0.03460
C5126       C  0.16723361  0.05424748  0.42662941    -0.07910
C5127       C  0.17632236  0.06272856  0.40593737     0.05620
C5128       C  0.19992009  0.05834256  0.40146188    -0.02930
Br5129     Br  0.21357725  0.06746206  0.37300014    -0.02630
H5130       H  0.23205246  0.04400055  0.41356907     0.09530
H5131       H  0.14917818  0.05726446  0.43049490     0.07550
Br5132     Br  0.16585800  0.03261874  0.47037833    -0.03050
C5133       C  0.55856721  0.94822685  0.30959697    -0.09690
C5134       C  0.54213063  0.93933927  0.29394843     0.06510
C5135       C  0.53920829  0.91478924  0.29361127    -0.03460
C5136       C  0.55237547  0.90016543  0.30825174    -0.07910
C5137       C  0.56894442  0.90917096  0.32356765     0.05620
C5138       C  0.57196536  0.93356574  0.32384178    -0.02930
Br5139     Br  0.59481606  0.94769149  0.34311499    -0.02630
H5140       H  0.56162387  0.96681059  0.31031382     0.09530
H5141       H  0.55008521  0.88151772  0.30715736     0.07550
Br5142     Br  0.51723623  0.90007047  0.27382644    -0.03050
C5143       C  0.55858682  0.93448431  0.20343198    -0.09690
C5144       C  0.55911608  0.95883609  0.20201426     0.06510
C5145       C  0.57219029  0.96844786  0.18374013    -0.03460
C5146       C  0.58637581  0.95436683  0.16966811    -0.07910
C5147       C  0.58647481  0.93001088  0.17159050     0.05620
C5148       C  0.57091491  0.92020299  0.18800012    -0.02930
Br5149     Br  0.56185715  0.88805249  0.18846610    -0.02630
H5150       H  0.54727535  0.92637775  0.21590517     0.09530
H5151       H  0.59678782  0.96255075  0.15651561     0.07550
Br5152     Br  0.56928185  0.99985889  0.17456696    -0.03050
C5153       C  0.45778137  0.91503179  0.29209244    -0.09690
C5154       C  0.45918647  0.93921867  0.29658639     0.06510
C5155       C  0.44874371  0.94683050  0.31749362    -0.03460
C5156       C  0.43803089  0.93097073  0.33276497    -0.07910
C5157       C  0.43680219  0.90702382  0.32825245     0.05620
C5158       C  0.44680670  0.89923026  0.30747615    -0.02930
Br5159     Br  0.44512040  0.86704262  0.29908242    -0.02630
H5160       H  0.46489947  0.90830670  0.27628879     0.09530
H5161       H  0.42985017  0.93761613  0.34812027     0.07550
Br5162     Br  0.44633843  0.97890995  0.32613663    -0.03050
C5163       C  0.40047345  0.95766174  0.18135187    -0.09690
C5164       C  0.40848048  0.93864167  0.16821098     0.06510
C5165       C  0.43145174  0.93123787  0.17223365    -0.03460
C5166       C  0.44573418  0.94270951  0.18829566    -0.07910
C5167       C  0.43776814  0.96136517  0.20187611     0.05620
C5168       C  0.41462350  0.96865671  0.19818084    -0.02930
Br5169     Br  0.40153440  0.99378158  0.21534534    -0.02630
H5170       H  0.38284425  0.96352364  0.17912105     0.09530
H5171       H  0.46325118  0.93651296  0.19056084     0.07550
Br5172     Br  0.44451545  0.90535937  0.15598344    -0.03050
C5173       C  0.44784990  0.07399558  0.33585732    -0.09690
C5174       C  0.43540824  0.09313633  0.32743983     0.06510
C5175       C  0.43661494  0.09748177  0.30358080    -0.03460
C5176       C  0.44921315  0.08262349  0.28883281    -0.07910
C5177       C  0.46069656  0.06263486  0.29697427     0.05620
C5178       C  0.46009811  0.05880360  0.32109061    -0.02930
Br5179     Br  0.47529024  0.03305748  0.33545735    -0.02630
H5180       H  0.44720674  0.07016793  0.35400407     0.09530
H5181       H  0.44926950  0.08635087  0.27065747     0.07550
Br5182     Br  0.42150160  0.12381160  0.29008615    -0.03050
C5183       C  0.42347342  0.06036158  0.21353950    -0.09690
C5184       C  0.43797133  0.04320038  0.20418782     0.06510
C5185       C  0.43663332  0.03954015  0.18020566    -0.03460
C5186       C  0.42186410  0.05331530  0.16630195    -0.07910
C5187       C  0.40825631  0.07140212  0.17555331     0.05620
C5188       C  0.40898001  0.07428913  0.19974109    -0.02930
Br5189     Br  0.38983072  0.09610589  0.21572438    -0.02630
H5190       H  0.42380828  0.06343318  0.23184030     0.09530
H5191       H  0.42148493  0.05020474  0.14802159     0.07550
Br5192     Br  0.45394759  0.01524430  0.16568037    -0.03050
C5193       C  0.56664644  0.09384055  0.30596231    -0.09690
C5194       C  0.56047440  0.09340116  0.32933904     0.06510
C5195       C  0.54242373  0.07814022  0.33579460    -0.03460
C5196       C  0.53208231  0.06313899  0.31945062    -0.07910
C5197       C  0.53836603  0.06349073  0.29609436     0.05620
C5198       C  0.55571439  0.07955358  0.28952674    -0.02930
Br5199     Br  0.56685682  0.08147295  0.25865012    -0.02630
H5200       H  0.58047022  0.10523438  0.30037651     0.09530
H5201       H  0.51921400  0.05085932  0.32513828     0.07550
Br5202     Br  0.53221058  0.07585488  0.36690898    -0.03050
C5203       C  0.55332788  0.05666109  0.18415684    -0.09690
C5204       C  0.56155868  0.04479262  0.20376057     0.06510
C5205       C  0.58599832  0.04461808  0.20690505    -0.03460
C5206       C  0.60099816  0.05545369  0.19080690    -0.07910
C5207       C  0.59258313  0.06691899  0.17118717     0.05620
C5208       C  0.56837186  0.06757730  0.16828612    -0.02930
Br5209     Br  0.55499097  0.08325413  0.14256572    -0.02630
H5210       H  0.53492169  0.05742883  0.18097943     0.09530
H5211       H  0.61945748  0.05507102  0.19379037     0.07550
Br5212     Br  0.60041120  0.02880201  0.23203830    -0.03050
C5213       C  0.89865676  0.45033223  0.31107807    -0.09690
C5214       C  0.90735694  0.43596891  0.32869640     0.06510
C5215       C  0.93163988  0.43392473  0.33016163    -0.03460
C5216       C  0.94641472  0.44588568  0.31475657    -0.07910
C5217       C  0.93789995  0.45989885  0.29670222     0.05620
C5218       C  0.91344925  0.46209376  0.29532713    -0.02930
Br5219     Br  0.89901812  0.48099251  0.27241421    -0.02630
H5220       H  0.88012610  0.45188783  0.30906465     0.09530
H5221       H  0.96486933  0.44347838  0.31654166     0.07550
Br5222     Br  0.94553303  0.41403242  0.35259976    -0.03050
C5223       C  0.94805931  0.42798760  0.16295663    -0.09690
C5224       C  0.93801864  0.40726951  0.17097760     0.06510
C5225       C  0.94103967  0.40178065  0.19441588    -0.03460
C5226       C  0.95291012  0.41707013  0.20929479    -0.07910
C5227       C  0.96189416  0.43854671  0.20168559     0.05620
C5228       C  0.95972547  0.44351194  0.17784935    -0.02930
Br5229     Br  0.97179860  0.47134840  0.16411982    -0.02630
H5230       H  0.94588221  0.43272691  0.14514190     0.09530
H5231       H  0.95434429  0.41240966  0.22719858     0.07550
Br5232     Br  0.92912656  0.37338696  0.20710247    -0.03050
C5233       C  0.91614894  0.54349225  0.29089624    -0.09690
C5234       C  0.93980503  0.54139364  0.29639094     0.06510
C5235       C  0.94733488  0.55235950  0.31699971    -0.03460
C5236       C  0.93145444  0.56366654  0.33161735    -0.07910
C5237       C  0.90794817  0.56547294  0.32611827     0.05620
C5238       C  0.90055132  0.55572893  0.30514881    -0.02930
Br5239     Br  0.86957876  0.56010402  0.29442856    -0.02630
H5240       H  0.90978774  0.53621367  0.27500821     0.09530
H5241       H  0.93774869  0.57201732  0.34703257     0.07550
Br5242     Br  0.97928268  0.55496271  0.32562243    -0.03050
C5243       C  0.96316459  0.56048348  0.18005307    -0.09690
C5244       C  0.96079715  0.56298916  0.20404366     0.06510
C5245       C  0.94637132  0.58131367  0.21182688    -0.03460
C5246       C  0.93453376  0.59578614  0.19611110    -0.07910
C5247       C  0.93683268  0.59326325  0.17221567     0.05620
C5248       C  0.95165118  0.57537934  0.16435997    -0.02930
Br5249     Br  0.95512742  0.56915496  0.13232502    -0.02630
H5250       H  0.97382060  0.54656402  0.17337122     0.09530
H5251       H  0.92306314  0.60904057  0.20266243     0.07550
Br5252     Br  0.94052435  0.58644230  0.24379188    -0.03050
C5253       C  0.07274177  0.57779818  0.31516037    -0.09690
C5254       C  0.09085792  0.56684388  0.32716793     0.06510
C5255       C  0.09366612  0.54256696  0.32356654    -0.03460
C5256       C  0.07906028  0.53028094  0.30805249    -0.07910
C5257       C  0.06110805  0.54156491  0.29600622     0.05620
C5258       C  0.05805667  0.56558418  0.30013792    -0.02930
Br5259     Br  0.03418551  0.58297153  0.28517333    -0.02630
H5260       H  0.06982154  0.59626080  0.31744403     0.09530
H5261       H  0.08169119  0.51181507  0.30551793     0.07550
Br5262     Br  0.11774424  0.52554128  0.33854427    -0.03050
C5263       C  0.04800397  0.60074175  0.18799350    -0.09690
C5264       C  0.06359730  0.59184592  0.17164034     0.06510
C5265       C  0.06649963  0.56750067  0.17072643    -0.03460
C5266       C  0.05447439  0.55273491  0.18593339    -0.07910
C5267       C  0.03948335  0.56150369  0.20297519     0.05620
C5268       C  0.03597632  0.58594855  0.20339940    -0.02930
Br5269     Br  0.01455832  0.60018259  0.22414500    -0.02630
H5270       H  0.04565935  0.61939697  0.18927908     0.09530
H5271       H  0.05760776  0.53418455  0.18489052     0.07550
Br5272     Br  0.08762017  0.55361837  0.14942468    -0.03050
C5273       C  0.08500926  0.46156754  0.29443750    -0.09690
C5274       C  0.06084475  0.45868509  0.29669318     0.06510
C5275       C  0.05313742  0.44409003  0.31492763    -0.03460
C5276       C  0.06904225  0.43285214  0.32958913    -0.07910
C5277       C  0.09301549  0.43579768  0.32730206     0.05620
C5278       C  0.10085514  0.45053247  0.30950453    -0.02930
Br5279     Br  0.13324186  0.45516628  0.30449719    -0.02630
H5280       H  0.09170011  0.47243640  0.28081217     0.09530
H5281       H  0.06254912  0.42133251  0.34279792     0.07550
Br5282     Br  0.02111193  0.43712960  0.32032850    -0.03050
C5283       C  0.04310864  0.41530196  0.20771699    -0.09690
C5284       C  0.03759984  0.43831168  0.20126090     0.06510
C5285       C  0.04280037  0.44470429  0.17815998    -0.03460
C5286       C  0.05274405  0.42854084  0.16271721    -0.07910
C5287       C  0.05864874  0.40587238  0.16946252     0.05620
C5288       C  0.05389276  0.39955020  0.19241054    -0.02930
Br5289     Br  0.06291315  0.36976843  0.20408331    -0.02630
H5290       H  0.03988240  0.40970295  0.22512859     0.09530
H5291       H  0.05702848  0.43418365  0.14553250     0.07550
Br5292     Br  0.03845363  0.47558958  0.16628078    -0.03050
loop_ 
_geom_bond_atom_site_label_1 
_geom_bond_atom_site_label_2 
_geom_bond_distance 
_geom_bond_site_symmetry_2 
_ccdc_geom_bond_type 
O1            C9   1.259       .  A
O1          Co21   1.981   1_455  S
O2           C10   1.257       .  A
O2          Co22   1.974   1_655  S
O3           C11   1.278       .  A
O3          Co23   2.073       .  S
O4           C12   1.281       .  A
O4          Co24   2.083       .  S
O5           C11   1.259       .  A
O5          Co22   1.984       .  S
O6           C12   1.263       .  A
O6          Co21   1.989       .  S
O7           C10   1.278       .  A
O7          Co24   2.069       .  S
O8            C9   1.279       .  A
O8          Co23   2.077       .  S
C9         C5274   1.529       .  S
C10        C5234   1.522       .  S
C11        C5257   1.517       .  S
C12        C5217   1.538       .  S
O13          C26   1.278       .  A
O13         Co21   2.066       .  S
O14          C27   1.277       .  A
O14         Co22   2.068       .  S
O15          C28   1.255       .  A
O15         Co23   1.976       .  S
O16          C29   1.261       .  A
O16         Co24   1.994       .  S
O17          C29   1.277       .  A
O17         Co22   2.066   1_655  S
O18          C28   1.279       .  A
O18         Co21   2.078   1_455  S
O19          C26   1.258       .  A
O19         Co24   1.981       .  S
O20          C27   1.259       .  A
O20         Co23   1.979       .  S
Co21         O25   2.143   1_655  S
Co22         O25   2.137       .  S
Co23         O25   2.142       .  S
Co24         O25   2.145   1_655  S
C26        C5227   1.524       .  S
C27        C5267   1.521       .  S
C28        C5284   1.530       .  S
C29        C5244   1.526       .  S
O30          C38   1.263       .  A
O30         Co50   1.996       .  S
O31          C39   1.258       .  A
O31         Co51   1.984   1_565  S
O32          C40   1.279       .  A
O32         Co52   2.073       .  S
O33          C41   1.278       .  A
O33         Co53   2.073       .  S
O34          C40   1.259       .  A
O34         Co51   1.986       .  S
O35          C41   1.261       .  A
O35         Co50   1.985   1_565  S
O36          C39   1.282       .  A
O36         Co53   2.092       .  S
O37          C38   1.276       .  A
O37         Co52   2.063       .  S
C38        C5197   1.519       .  S
C39        C5154   1.543       .  S
C40        C5177   1.526       .  S
C41        C5134   1.529       .  S
O42          C55   1.281       .  A
O42         Co50   2.080   1_565  S
O43          C56   1.278       .  A
O43         Co51   2.068       .  S
O44          C57   1.265       .  A
O44         Co52   1.991       .  S
O45          C58   1.259       .  A
O45         Co53   1.982       .  S
O46          C58   1.280       .  A
O46         Co51   2.082   1_565  S
O47          C57   1.277       .  A
O47         Co50   2.069       .  S
O48          C55   1.259       .  A
O48         Co53   1.990       .  S
O49          C56   1.261       .  A
O49         Co52   1.991       .  S
Co50         O54   2.148       .  S
Co51         O54   2.145       .  S
Co52         O54   2.152       .  S
Co53         O54   2.153   1_565  S
C55        C5144   1.520       .  S
C56        C5184   1.519       .  S
C57        C5204   1.535       .  S
C58        C5167   1.529       .  S
O59          C67   1.259       .  A
O59         Co79   1.983       .  S
O60          C68   1.262       .  A
O60         Co80   1.995       .  S
O61          C69   1.277       .  A
O61         Co81   2.061       .  S
O62          C70   1.280       .  A
O62         Co82   2.080   1_545  S
O63          C69   1.263       .  A
O63         Co80   1.996       .  S
O64          C70   1.261       .  A
O64         Co79   1.984       .  S
O65          C68   1.279       .  A
O65         Co82   2.074       .  S
O66          C67   1.279       .  A
O66         Co81   2.073   1_545  S
C67        C5124   1.529       .  S
C68        C5084   1.520       .  S
C69        C5064   1.524       .  S
C70        C5104   1.529       .  S
O71          C84   1.277       .  A
O71         Co79   2.070       .  S
O72          C85   1.279       .  A
O72         Co80   2.077       .  S
O73          C86   1.257       .  A
O73         Co81   1.978   1_545  S
O74          C87   1.258       .  A
O74         Co82   1.989       .  S
O75          C87   1.278       .  A
O75         Co80   2.071       .  S
O76          C86   1.279       .  A
O76         Co79   2.073       .  S
O77          C84   1.259       .  A
O77         Co82   1.978   1_545  S
O78          C85   1.261       .  A
O78         Co81   1.981       .  S
Co79         O83   2.145   1_545  S
Co80         O83   2.147       .  S
Co81         O83   2.139       .  S
Co82         O83   2.140       .  S
C84        C5097   1.522       .  S
C85        C5054   1.525       .  S
C86        C5114   1.528       .  S
C87        C5074   1.518       .  S
O88          C96   1.259       .  A
O88        Co108   1.977       .  S
O89          C97   1.263       .  A
O89        Co109   1.988   1_655  S
O90          C98   1.279       .  A
O90        Co110   2.078       .  S
O91          C99   1.274       .  A
O91        Co111   2.062       .  S
O92          C98   1.261       .  A
O92        Co109   1.993       .  S
O93          C99   1.260       .  A
O93        Co108   1.984   1_655  S
O94          C97   1.279       .  A
O94        Co111   2.072       .  S
O95          C96   1.279       .  A
O95        Co110   2.074       .  S
C96        C5034   1.512       .  S
C97        C4994   1.529       .  S
C98        C5017   1.536       .  S
C99        C4977   1.513       .  S
O100        C113   1.276       .  A
O100       Co108   2.064   1_655  S
O101        C114   1.284       .  A
O101       Co109   2.090       .  S
O102        C115   1.260       .  A
O102       Co110   1.984       .  S
O103        C116   1.260       .  A
O103       Co111   1.976       .  S
O104        C116   1.274       .  A
O104       Co109   2.063   1_655  S
O105        C115   1.277       .  A
O105       Co108   2.071       .  S
O106        C113   1.261       .  A
O106       Co111   1.981       .  S
O107        C114   1.259       .  A
O107       Co110   1.994       .  S
Co108       O112   2.148       .  S
Co109       O112   2.145       .  S
Co110       O112   2.149       .  S
Co111       O112   2.149   1_655  S
C113       C4987   1.512       .  S
C114       C5024   1.527       .  S
C115       C5047   1.525       .  S
C116       C5004   1.521       .  S
O117        C125   1.261       .  A
O117       Co137   1.979   1_554  S
O118        C126   1.261       .  A
O118       Co138   1.984       .  S
O119        C127   1.275       .  A
O119       Co139   2.059       .  S
O120        C128   1.279       .  A
O120       Co140   2.079       .  S
O121        C127   1.261       .  A
O121       Co138   1.994   1_554  S
O122        C128   1.260       .  A
O122       Co137   1.991       .  S
O123        C126   1.278       .  A
O123       Co140   2.062       .  S
O124        C125   1.280       .  A
O124       Co139   2.072       .  S
C125       C4954   1.513       .  S
C126       C4914   1.525       .  S
C127       C4937   1.522       .  S
C128       C4897   1.538       .  S
O129        C142   1.279       .  A
O129       Co137   2.075       .  S
O130        C143   1.282       .  A
O130       Co138   2.084   1_554  S
O131        C144   1.261       .  A
O131       Co139   1.988       .  S
O132        C145   1.259       .  A
O132       Co140   1.977       .  S
O133        C145   1.276       .  A
O133       Co138   2.066       .  S
O134        C144   1.276       .  A
O134       Co137   2.064   1_554  S
O135        C142   1.257       .  A
O135       Co140   1.972       .  S
O136        C143   1.261       .  A
O136       Co139   1.985       .  S
Co137       O141   2.143       .  S
Co138       O141   2.142       .  S
Co139       O141   2.140   1_554  S
Co140       O141   2.137       .  S
C142       C4904   1.515       .  S
C143       C4947   1.537       .  S
C144       C4964   1.528       .  S
C145       C4924   1.518       .  S
O146        C154   1.260       .  A
O146       Co166   1.996       .  S
O147        C155   1.262       .  A
O147       Co167   1.995   1_556  S
O148        C156   1.279       .  A
O148       Co168   2.081       .  S
O149        C157   1.281       .  A
O149       Co169   2.087       .  S
O150        C156   1.260       .  A
O150       Co167   1.985       .  S
O151        C157   1.259       .  A
O151       Co166   1.986   1_556  S
O152        C155   1.280       .  A
O152       Co169   2.076       .  S
O153        C154   1.276       .  A
O153       Co168   2.060       .  S
C154       C4874   1.512       .  S
C155       C4837   1.523       .  S
C156       C4854   1.534       .  S
C157       C4814   1.539       .  S
O158        C171   1.280       .  A
O158       Co166   2.077   1_556  S
O159        C172   1.280       .  A
O159       Co167   2.079       .  S
O160        C173   1.262       .  A
O160       Co168   1.986       .  S
O161        C174   1.260       .  A
O161       Co169   1.984       .  S
O162        C174   1.276       .  A
O162       Co167   2.068   1_556  S
O163        C173   1.278       .  A
O163       Co166   2.077       .  S
O164        C171   1.257       .  A
O164       Co169   1.991       .  S
O165        C172   1.259       .  A
O165       Co168   1.983       .  S
Co166       O170   2.145       .  S
Co167       O170   2.145       .  S
Co168       O170   2.149       .  S
Co169       O170   2.146   1_556  S
C171       C4827   1.518       .  S
C172       C4864   1.521       .  S
C173       C4887   1.524       .  S
C174       C4844   1.527       .  S
O175        C183   1.279       .  A
O175       Co195   2.073       .  S
O176        C184   1.277       .  A
O176       Co196   2.069       .  S
O177        C185   1.256       .  A
O177       Co197   1.985       .  S
O178        C186   1.258       .  A
O178       Co198   1.983   1_545  S
O179        C185   1.279       .  A
O179       Co196   2.075       .  S
O180        C186   1.279       .  A
O180       Co195   2.071       .  S
O181        C184   1.260       .  A
O181       Co198   1.987       .  S
O182        C183   1.258       .  A
O182       Co197   1.983   1_545  S
C183       C4794   1.529       .  S
C184       C4737   1.531       .  S
C185       C4757   1.522       .  S
C186       C4774   1.527       .  S
O187        C200   1.262       .  A
O187       Co195   1.993       .  S
O188        C201   1.257       .  A
O188       Co196   1.983       .  S
O189        C202   1.278       .  A
O189       Co197   2.070   1_545  S
O190        C203   1.280       .  A
O190       Co198   2.081       .  S
O191        C203   1.260       .  A
O191       Co196   1.982       .  S
O192        C202   1.263       .  A
O192       Co195   1.988       .  S
O193        C200   1.280       .  A
O193       Co198   2.070   1_545  S
O194        C201   1.280       .  A
O194       Co197   2.080       .  S
Co195       O199   2.146   1_545  S
Co196       O199   2.141       .  S
Co197       O199   2.142       .  S
Co198       O199   2.142       .  S
C200       C4784   1.527       .  S
C201       C4764   1.514       .  S
C202       C4804   1.525       .  S
C203       C4744   1.528       .  S
O204        C212   1.278       .  A
O204       Co224   2.065       .  S
O205        C213   1.279       .  A
O205       Co225   2.074       .  S
O206        C214   1.263       .  A
O206       Co226   1.996   1_556  S
O207        C215   1.263       .  A
O207       Co227   1.986   1_554  S
O208        C214   1.277       .  A
O208       Co225   2.067       .  S
O209        C215   1.280       .  A
O209       Co224   2.075       .  S
O210        C213   1.262       .  A
O210       Co227   1.995       .  S
O211        C212   1.264       .  A
O211       Co226   1.995       .  S
C212       C4714   1.532       .  S
C213       C4654   1.528       .  S
C214       C4674   1.518       .  S
C215       C4697   1.529       .  S
O216        C229   1.258       .  A
O216       Co224   1.975       .  S
O217        C230   1.258       .  A
O217       Co225   1.974       .  S
O218        C231   1.279       .  A
O218       Co226   2.076       .  S
O219        C232   1.278       .  A
O219       Co227   2.077       .  S
O220        C232   1.256       .  A
O220       Co225   1.976       .  S
O221        C231   1.262       .  A
O221       Co224   1.996       .  S
O222        C229   1.277       .  A
O222       Co227   2.069   1_554  S
O223        C230   1.278       .  A
O223       Co226   2.075   1_556  S
Co224       O228   2.137   1_554  S
Co225       O228   2.135       .  S
Co226       O228   2.151   1_554  S
Co227       O228   2.157       .  S
C229       C4704   1.511       .  S
C230       C4684   1.518       .  S
C231       C4724   1.536       .  S
C232       C4664   1.524       .  S
O233        C241   1.280       .  A
O233       Co253   2.074       .  S
O234        C242   1.281       .  A
O234       Co254   2.078       .  S
O235        C243   1.261       .  A
O235       Co255   1.996       .  S
O236        C244   1.260       .  A
O236       Co256   2.000   1_455  S
O237        C243   1.276       .  A
O237       Co254   2.065       .  S
O238        C244   1.279       .  A
O238       Co253   2.075       .  S
O239        C242   1.262       .  A
O239       Co256   1.983       .  S
O240        C241   1.262       .  A
O240       Co255   1.979   1_455  S
C241       C4637   1.523       .  S
C242       C4574   1.523       .  S
C243       C4594   1.527       .  S
C244       C4614   1.526       .  S
O245        C258   1.260       .  A
O245       Co253   1.989       .  S
O246        C259   1.262       .  A
O246       Co254   1.989       .  S
O247        C260   1.277       .  A
O247       Co255   2.071   1_455  S
O248        C261   1.275       .  A
O248       Co256   2.068       .  S
O249        C261   1.259       .  A
O249       Co254   1.980       .  S
O250        C260   1.262       .  A
O250       Co253   1.995       .  S
O251        C258   1.283       .  A
O251       Co256   2.084   1_455  S
O252        C259   1.280       .  A
O252       Co255   2.072       .  S
Co253       O257   2.148   1_455  S
Co254       O257   2.143       .  S
Co255       O257   2.140       .  S
Co256       O257   2.145       .  S
C258       C4624   1.523       .  S
C259       C4604   1.527       .  S
C260       C4644   1.534       .  S
C261       C4587   1.525       .  S
O262        C270   1.261       .  A
O262       Co282   1.985   1_455  S
O263        C271   1.258       .  A
O263       Co283   1.979   1_655  S
O264        C272   1.277       .  A
O264       Co284   2.071       .  S
O265        C273   1.280       .  A
O265       Co285   2.077       .  S
O266        C272   1.260       .  A
O266       Co283   1.992       .  S
O267        C273   1.261       .  A
O267       Co282   1.982       .  S
O268        C271   1.278       .  A
O268       Co285   2.069       .  S
O269        C270   1.279       .  A
O269       Co284   2.076       .  S
C270       C4557   1.530       .  S
C271       C4517   1.526       .  S
C272       C4534   1.517       .  S
C273       C4497   1.528       .  S
O274        C287   1.278       .  A
O274       Co282   2.073       .  S
O275        C288   1.277       .  A
O275       Co283   2.070       .  S
O276        C289   1.257       .  A
O276       Co284   1.972       .  S
O277        C290   1.258       .  A
O277       Co285   1.980       .  S
O278        C290   1.279       .  A
O278       Co283   2.072   1_655  S
O279        C289   1.279       .  A
O279       Co282   2.075   1_455  S
O280        C287   1.260       .  A
O280       Co285   1.990       .  S
O281        C288   1.258       .  A
O281       Co284   1.987       .  S
Co282       O286   2.144   1_655  S
Co283       O286   2.140       .  S
Co284       O286   2.142       .  S
Co285       O286   2.144   1_655  S
C287       C4504   1.533       .  S
C288       C4547   1.513       .  S
C289       C4564   1.518       .  S
C290       C4527   1.527       .  S
O291        C299   1.261       .  A
O291       Co311   1.986   1_554  S
O292        C300   1.262       .  A
O292       Co312   1.988   1_556  S
O293        C301   1.279       .  A
O293       Co313   2.074       .  S
O294        C302   1.278       .  A
O294       Co314   2.072       .  S
O295        C301   1.260       .  A
O295       Co312   1.991       .  S
O296        C302   1.260       .  A
O296       Co311   1.984       .  S
O297        C300   1.282       .  A
O297       Co314   2.085       .  S
O298        C299   1.281       .  A
O298       Co313   2.076       .  S
C299       C4474   1.533       .  S
C300       C4434   1.538       .  S
C301       C4457   1.533       .  S
C302       C4414   1.521       .  S
O303        C316   1.279       .  A
O303       Co311   2.072       .  S
O304        C317   1.281       .  A
O304       Co312   2.081       .  S
O305        C318   1.262       .  A
O305       Co313   1.998       .  S
O306        C319   1.260       .  A
O306       Co314   1.991       .  S
O307        C319   1.277       .  A
O307       Co312   2.063   1_556  S
O308        C318   1.276       .  A
O308       Co311   2.059   1_554  S
O309        C316   1.264       .  A
O309       Co314   1.992       .  S
O310        C317   1.263       .  A
O310       Co313   1.990       .  S
Co311       O315   2.137       .  S
Co312       O315   2.139   1_554  S
Co313       O315   2.148   1_554  S
Co314       O315   2.148       .  S
C316       C4427   1.534       .  S
C317       C4467   1.527       .  S
C318       C4487   1.524       .  S
C319       C4447   1.522       .  S
C320        C357   1.456       .  S
C320       C4384   1.451       .  S
C320        N338   1.346       .  A
N321        N338   1.311       .  A
N321        N343   1.312       .  A
N321       Co358   2.046       .  S
C322        C360   1.478       .  S
C322        N347   1.356       .  A
C322        H367   1.081       .  S
H323        C364   1.081       .  S
C324        C328   1.448       .  S
C324        N348   1.318       .  A
C324        H353   1.070       .  S
Co325       N343   2.030       .  S
Co325       N333   2.076       .  S
Co325       N365   2.042       .  S
Co325       N341   2.068       .  S
Co325      Cl369   2.448       .  S
N326        C364   1.353       .  A
N326        N333   1.317       .  A
N326       Co327   2.110       .  S
Co327       N330   2.084       .  S
Co327       N347   2.127       .  S
Co327       N334   2.047       .  S
Co327      Cl369   2.453       .  S
C328       C4364   1.463       .  S
C328        N366   1.352       .  A
N329        N336   1.314       .  A
N329        N359   1.344       .  A
N329       Co362   2.172       .  S
N330        N348   1.322       .  A
N330        N366   1.322       .  A
N331        C360   1.348       .  A
N331        N341   1.323       .  A
H332        C357   1.074       .  S
N333        N354   1.321       .  A
N334        N352   1.326       .  A
N334        N339   1.313       .  A
C335        C363   1.454       .  S
C335       C4354   1.438       .  S
C335        N339   1.338       .  A
N336        C351   1.339       .  A
N336       Co358   2.064       .  S
C337        C340   1.453       .  S
C337        N365   1.335       .  A
C337        H371   1.081       .  S
C340       C4374   1.421       .  S
C340        N361   1.333       .  A
N341        N347   1.315       .  A
N342        C368   1.345       .  A
N342        N344   1.312       .  A
N342       Co358   2.085       .  S
N343        C357   1.328       .  A
N344        N372   1.338       .  A
N344       Co362   2.135       .  S
H345        C368   1.081       .  S
H346        C363   1.080       .  S
N348       Co362   2.046       .  S
N349        N361   1.304       .  A
N349        N365   1.314       .  A
N349       Co358   2.017       .  S
C350        C364   1.476       .  S
C350       C4407   1.487       .  S
C350        N354   1.345       .  A
C351        C370   1.453       .  S
C351        H355   1.082       .  S
N352        C363   1.333       .  A
N352       Co362   2.077       .  S
C356        C368   1.460       .  S
C356       C4514   1.511       .  S
C356        N372   1.365       .  A
Co358      Cl369   2.421       .  S
N359        C370   1.374       .  A
C360       C4394   1.495       .  S
Co362      Cl369   2.454       .  S
C370       C4974   1.520       .  S
C373        C410   1.486       .  S
C373       C4917   1.509       .  S
C373        N391   1.346       .  A
N374        N391   1.327       .  A
N374        N396   1.315       .  A
N374       Co411   2.075       .  S
C375        C413   1.437       .  S
C375        N400   1.328       .  A
C375        H420   1.081       .  S
H376        C417   1.081       .  S
C377        C381   1.455       .  S
C377        N401   1.335       .  A
C377        H406   1.082       .  S
Co378       N396   2.149       .  S
Co378       N386   2.084       .  S
Co378       N418   2.152       .  S
Co378       N394   2.074       .  S
Co378      Cl422   2.447       .  S
N379        C417   1.329       .  A
N379        N386   1.326       .  A
N379       Co380   2.045       .  S
Co380       N383   2.108       .  S
Co380       N400   2.041       .  S
Co380       N387   2.109       .  S
Co380      Cl422   2.460       .  S
C381       C4347   1.483       .  S
C381        N419   1.358       .  A
N382        N389   1.314       .  A
N382        N412   1.318       .  A
N382       Co415   2.050       .  S
N383        N401   1.315       .  A
N383        N419   1.332       .  A
N384        C413   1.343       .  A
N384        N394   1.316       .  A
H385        C410   1.081       .  S
N386        N407   1.318       .  A
N387        N405   1.315       .  A
N387        N392   1.334       .  A
C388        C416   1.462       .  S
C388       C4397   1.495       .  S
C388        N392   1.359       .  A
N389        C404   1.322       .  A
N389       Co411   2.034       .  S
C390        C393   1.490       .  S
C390        N418   1.362       .  A
C390        H424   1.081       .  S
C393       C4657   1.525       .  S
C393        N414   1.351       .  A
N394        N400   1.325       .  A
N395        C421   1.321       .  A
N395        N397   1.317       .  A
N395       Co411   2.032       .  S
N396        C410   1.359       .  A
N397        N425   1.316       .  A
N397       Co415   2.032       .  S
H398        C421   1.079       .  S
H399        C416   1.082       .  S
N401       Co415   2.063       .  S
N402        N414   1.329       .  A
N402        N418   1.314       .  A
N402       Co411   2.090       .  S
C403        C417   1.439       .  S
C403       C4307   1.441       .  S
C403        N407   1.346       .  A
C404        C423   1.444       .  S
C404        H408   1.080       .  S
N405        C416   1.341       .  A
N405       Co415   2.089       .  S
C409        C421   1.436       .  S
C409       C4324   1.411       .  S
C409        N425   1.341       .  A
Co411      Cl422   2.436       .  S
N412        C423   1.350       .  A
C413       C4314   1.420       .  S
Co415      Cl422   2.437       .  S
C423       C4334   1.434       .  S
C426        C463   1.465       .  S
C426       C4284   1.443       .  S
C426        N444   1.335       .  A
N427        N444   1.305       .  A
N427        N449   1.313       .  A
N427       Co464   2.024       .  S
C428        C466   1.470       .  S
C428        N453   1.349       .  A
C428        H473   1.081       .  S
H429        C470   1.081       .  S
C430        C434   1.448       .  S
C430        N454   1.329       .  A
C430        H459   1.081       .  S
Co431       N449   2.042       .  S
Co431       N439   2.072       .  S
Co431       N471   2.027       .  S
Co431       N447   2.086       .  S
Co431      Cl475   2.460       .  S
N432        C470   1.348       .  A
N432        N439   1.315       .  A
N432       Co433   2.099       .  S
Co433       N436   2.040       .  S
Co433       N453   2.099       .  S
Co433       N440   2.044       .  S
Co433      Cl475   2.436       .  S
C434       C4254   1.417       .  S
C434        N472   1.334       .  A
N435        N442   1.312       .  A
N435        N465   1.341       .  A
N435       Co468   2.153       .  S
N436        N454   1.325       .  A
N436        N472   1.314       .  A
N437        C466   1.350       .  A
N437        N447   1.325       .  A
H438        C463   1.078       .  S
N439        N460   1.323       .  A
N440        N458   1.324       .  A
N440        N445   1.316       .  A
C441        C469   1.450       .  S
C441       C4264   1.428       .  S
C441        N445   1.337       .  A
N442        C457   1.343       .  A
N442       Co464   2.074       .  S
C443        C446   1.449       .  S
C443        N471   1.330       .  A
C443        H477   1.081       .  S
C446       C4274   1.411       .  S
C446        N467   1.336       .  A
N447        N453   1.316       .  A
N448        C474   1.341       .  A
N448        N450   1.313       .  A
N448       Co464   2.069       .  S
N449        C463   1.333       .  A
N450        N478   1.340       .  A
N450       Co468   2.150       .  S
H451        C474   1.082       .  S
H452        C469   1.082       .  S
N454       Co468   2.068       .  S
N455        N467   1.307       .  A
N455        N471   1.314       .  A
N455       Co464   2.030       .  S
C456        C470   1.468       .  S
C456       C4344   1.481       .  S
C456        N460   1.348       .  A
C457        C476   1.455       .  S
C457        H461   1.081       .  S
N458        C469   1.326       .  A
N458       Co468   2.064       .  S
C462        C474   1.454       .  S
C462       C4294   1.508       .  S
C462        N478   1.369       .  A
Co464      Cl475   2.406       .  S
N465        C476   1.370       .  A
C466       C4404   1.488       .  S
Co468      Cl475   2.457       .  S
C476       C4797   1.514       .  S
C479        C516   1.458       .  S
C479       C4387   1.426       .  S
C479        N497   1.339       .  A
N480        N497   1.309       .  A
N480        N502   1.315       .  A
N480       Co517   2.040       .  S
C481        C519   1.473       .  S
C481        N506   1.351       .  A
C481        H526   1.081       .  S
H482        C523   1.081       .  S
C483        C487   1.451       .  S
C483        N507   1.333       .  A
C483        H512   1.081       .  S
Co484       N502   2.039       .  S
Co484       N492   2.079       .  S
Co484       N524   2.042       .  S
Co484       N500   2.085       .  S
Co484      Cl528   2.466       .  S
N485        C523   1.349       .  A
N485        N492   1.315       .  A
N485       Co486   2.101       .  S
Co486       N489   2.046       .  S
Co486       N506   2.108       .  S
Co486       N493   2.037       .  S
Co486      Cl528   2.434       .  S
C487       C4204   1.425       .  S
C487        N525   1.335       .  A
N488        N495   1.312       .  A
N488        N518   1.340       .  A
N488       Co521   2.147       .  S
N489        N507   1.327       .  A
N489        N525   1.314       .  A
N490        C519   1.351       .  A
N490        N500   1.325       .  A
H491        C516   1.081       .  S
N492        N513   1.325       .  A
N493        N511   1.325       .  A
N493        N498   1.313       .  A
C494        C522   1.449       .  S
C494       C4217   1.420       .  S
C494        N498   1.334       .  A
N495        C510   1.339       .  A
N495       Co517   2.063       .  S
C496        C499   1.465       .  S
C496        N524   1.334       .  A
C496        H530   1.079       .  S
C499       C4277   1.440       .  S
C499        N520   1.333       .  A
N500        N506   1.316       .  A
N501        C527   1.343       .  A
N501        N503   1.313       .  A
N501       Co517   2.080       .  S
N502        C516   1.334       .  A
N503        N531   1.345       .  A
N503       Co521   2.169       .  S
H504        C527   1.082       .  S
H505        C522   1.082       .  S
N507       Co521   2.081       .  S
N508        N520   1.305       .  A
N508        N524   1.312       .  A
N508       Co517   2.018       .  S
C509        C523   1.470       .  S
C509       C4244   1.485       .  S
C509        N513   1.349       .  A
C510        C529   1.455       .  S
C510        H514   1.082       .  S
N511        C522   1.325       .  A
N511       Co521   2.059       .  S
C515        C527   1.456       .  S
C515       C4224   1.526       .  S
C515        N531   1.375       .  A
Co517      Cl528   2.404       .  S
N518        C529   1.370       .  A
C519       C4234   1.493       .  S
Co521      Cl528   2.464       .  S
C529       C4984   1.512       .  S
C532        C569   1.482       .  S
C532       C4927   1.509       .  S
C532        N550   1.349       .  A
N533        N550   1.328       .  A
N533        N555   1.314       .  A
N533       Co570   2.077       .  S
C534        C572   1.440       .  S
C534        N559   1.327       .  A
C534        H579   1.080       .  S
H535        C576   1.081       .  S
C536        C540   1.453       .  S
C536        N560   1.334       .  A
C536        H565   1.081       .  S
Co537       N555   2.140       .  S
Co537       N545   2.087       .  S
Co537       N577   2.160       .  S
Co537       N553   2.074       .  S
Co537      Cl581   2.435       .  S
N538        C576   1.331       .  A
N538        N545   1.328       .  A
N538       Co539   2.067       .  S
Co539       N542   2.102       .  S
Co539       N559   2.048       .  S
Co539       N546   2.125       .  S
Co539      Cl581   2.460       .  S
C540       C4197   1.488       .  S
C540        N578   1.360       .  A
N541        N548   1.317       .  A
N541        N571   1.314       .  A
N541       Co574   2.023       .  S
N542        N560   1.312       .  A
N542        N578   1.333       .  A
N543        C572   1.343       .  A
N543        N553   1.316       .  A
H544        C569   1.080       .  S
N545        N566   1.319       .  A
N546        N564   1.314       .  A
N546        N551   1.336       .  A
C547        C575   1.453       .  S
C547       C4237   1.493       .  S
C547        N551   1.364       .  A
N548        C563   1.326       .  A
N548       Co570   2.056       .  S
C549        C552   1.490       .  S
C549        N577   1.363       .  A
C549        H583   1.081       .  S
C552       C4807   1.519       .  S
C552        N573   1.349       .  A
N553        N559   1.327       .  A
N554        C580   1.323       .  A
N554        N556   1.315       .  A
N554       Co570   2.038       .  S
N555        C569   1.357       .  A
N556        N584   1.315       .  A
N556       Co574   2.029       .  S
H557        C580   1.080       .  S
H558        C575   1.082       .  S
N560       Co574   2.062       .  S
N561        N573   1.328       .  A
N561        N577   1.315       .  A
N561       Co570   2.080       .  S
C562        C576   1.448       .  S
C562       C4177   1.451       .  S
C562        N566   1.346       .  A
C563        C582   1.455       .  S
C563        H567   1.078       .  S
N564        C575   1.333       .  A
N564       Co574   2.058       .  S
C568        C580   1.443       .  S
C568       C4287   1.415       .  S
C568        N584   1.340       .  A
Co570      Cl581   2.453       .  S
N571        C582   1.337       .  A
C572       C4184   1.437       .  S
Co574      Cl581   2.435       .  S
C582       C4337   1.442       .  S
C585        C622   1.461       .  S
C585       C4327   1.443       .  S
C585        N603   1.335       .  A
N586        N603   1.310       .  A
N586        N608   1.314       .  A
N586       Co623   2.023       .  S
C587        C625   1.470       .  S
C587        N612   1.350       .  A
C587        H632   1.081       .  S
H588        C629   1.081       .  S
C589        C593   1.450       .  S
C589        N613   1.330       .  A
C589        H618   1.081       .  S
Co590       N608   2.044       .  S
Co590       N598   2.083       .  S
Co590       N630   2.042       .  S
Co590       N606   2.083       .  S
Co590      Cl634   2.438       .  S
N591        C629   1.349       .  A
N591        N598   1.315       .  A
N591       Co592   2.097       .  S
Co592       N595   2.040       .  S
Co592       N612   2.103       .  S
Co592       N599   2.048       .  S
Co592      Cl634   2.449       .  S
C593       C4154   1.422       .  S
C593        N631   1.334       .  A
N594        N601   1.314       .  A
N594        N624   1.341       .  A
N594       Co627   2.152       .  S
N595        N613   1.325       .  A
N595        N631   1.315       .  A
N596        C625   1.350       .  A
N596        N606   1.325       .  A
H597        C622   1.079       .  S
N598        N619   1.324       .  A
N599        N617   1.327       .  A
N599        N604   1.316       .  A
C600        C628   1.450       .  S
C600       C4164   1.438       .  S
C600        N604   1.336       .  A
N601        C616   1.339       .  A
N601       Co623   2.069       .  S
C602        C605   1.453       .  S
C602        N630   1.328       .  A
C602        H636   1.082       .  S
C605       C4377   1.420       .  S
C605        N626   1.335       .  A
N606        N612   1.316       .  A
N607        C633   1.338       .  A
N607        N609   1.314       .  A
N607       Co623   2.057       .  S
N608        C622   1.327       .  A
N609        N637   1.342       .  A
N609       Co627   2.164       .  S
H610        C633   1.081       .  S
H611        C628   1.081       .  S
N613       Co627   2.071       .  S
N614        N626   1.309       .  A
N614        N630   1.315       .  A
N614       Co623   2.022       .  S
C615        C629   1.470       .  S
C615       C4194   1.488       .  S
C615        N619   1.350       .  A
C616        C635   1.450       .  S
C616        H620   1.076       .  S
N617        C628   1.331       .  A
N617       Co627   2.075       .  S
C621        C633   1.447       .  S
C621       C4524   1.509       .  S
C621        N637   1.372       .  A
Co623      Cl634   2.432       .  S
N624        C635   1.369       .  A
C625       C4247   1.487       .  S
Co627      Cl634   2.450       .  S
C635       C4667   1.509       .  S
C638        C675   1.443       .  S
C638       C4127   1.402       .  S
C638        N656   1.332       .  A
N639        N656   1.306       .  A
N639        N661   1.316       .  A
N639       Co676   2.020       .  S
C640        C678   1.473       .  S
C640        N665   1.351       .  A
C640        H685   1.081       .  S
H641        C682   1.081       .  S
C642        C646   1.449       .  S
C642        N666   1.328       .  A
C642        H671   1.082       .  S
Co643       N661   2.021       .  S
Co643       N651   2.079       .  S
Co643       N683   2.039       .  S
Co643       N659   2.064       .  S
Co643      Cl687   2.455       .  S
N644        C682   1.350       .  A
N644        N651   1.314       .  A
N644       Co645   2.100       .  S
Co645       N648   2.050       .  S
Co645       N665   2.105       .  S
Co645       N652   2.045       .  S
Co645      Cl687   2.432       .  S
C646       C4107   1.426       .  S
C646        N684   1.336       .  A
N647        N654   1.311       .  A
N647        N677   1.340       .  A
N647       Co680   2.149       .  S
N648        N666   1.327       .  A
N648        N684   1.315       .  A
N649        C678   1.348       .  A
N649        N659   1.322       .  A
H650        C675   1.081       .  S
N651        N672   1.324       .  A
N652        N670   1.329       .  A
N652        N657   1.314       .  A
C653        C681   1.445       .  S
C653       C4257   1.416       .  S
C653        N657   1.333       .  A
N654        C669   1.342       .  A
N654       Co676   2.069       .  S
C655        C658   1.461       .  S
C655        N683   1.330       .  A
C655        H689   1.080       .  S
C658       C4117   1.438       .  S
C658        N679   1.336       .  A
N659        N665   1.313       .  A
N660        C686   1.340       .  A
N660        N662   1.310       .  A
N660       Co676   2.057       .  S
N661        C675   1.326       .  A
N662        N690   1.342       .  A
N662       Co680   2.159       .  S
H663        C686   1.082       .  S
H664        C681   1.081       .  S
N666       Co680   2.072       .  S
N667        N679   1.306       .  A
N667        N683   1.314       .  A
N667       Co676   2.028       .  S
C668        C682   1.472       .  S
C668       C4134   1.489       .  S
C668        N672   1.350       .  A
C669        C688   1.455       .  S
C669        H673   1.082       .  S
N670        C681   1.329       .  A
N670       Co680   2.072       .  S
C674        C686   1.452       .  S
C674       C4777   1.514       .  S
C674        N690   1.372       .  A
Co676      Cl687   2.418       .  S
N677        C688   1.369       .  A
C678       C4144   1.484       .  S
Co680      Cl687   2.450       .  S
C688       C5094   1.510       .  S
C691        C728   1.495       .  S
C691       C5037   1.522       .  S
C691        N709   1.347       .  A
N692        N709   1.323       .  A
N692        N714   1.311       .  A
N692       Co729   2.060       .  S
C693        C731   1.441       .  S
C693        N718   1.331       .  A
C693        H738   1.081       .  S
H694        C735   1.081       .  S
C695        C699   1.455       .  S
C695        N719   1.334       .  A
C695        H724   1.082       .  S
Co696       N714   2.157       .  S
Co696       N704   2.065       .  S
Co696       N736   2.146       .  S
Co696       N712   2.088       .  S
Co696      Cl740   2.425       .  S
N697        C735   1.331       .  A
N697        N704   1.325       .  A
N697       Co698   2.047       .  S
Co698       N701   2.110       .  S
Co698       N718   2.057       .  S
Co698       N705   2.104       .  S
Co698      Cl740   2.466       .  S
C699       C4137   1.492       .  S
C699        N737   1.363       .  A
N700        N707   1.315       .  A
N700        N730   1.315       .  A
N700       Co733   2.043       .  S
N701        N719   1.312       .  A
N701        N737   1.334       .  A
N702        C731   1.345       .  A
N702        N712   1.318       .  A
H703        C728   1.081       .  S
N704        N725   1.310       .  A
N705        N723   1.314       .  A
N705        N710   1.332       .  A
C706        C734   1.462       .  S
C706       C4094   1.496       .  S
C706        N710   1.358       .  A
N707        C722   1.325       .  A
N707       Co729   2.041       .  S
C708        C711   1.495       .  S
C708        N736   1.361       .  A
C708        H742   1.079       .  S
C711       C4537   1.531       .  S
C711        N732   1.353       .  A
N712        N718   1.328       .  A
N713        C739   1.321       .  A
N713        N715   1.317       .  A
N713       Co729   2.018       .  S
N714        C728   1.364       .  A
N715        N743   1.313       .  A
N715       Co733   2.038       .  S
H716        C739   1.080       .  S
H717        C734   1.082       .  S
N719       Co733   2.059       .  S
N720        N732   1.326       .  A
N720        N736   1.310       .  A
N720       Co729   2.078       .  S
C721        C735   1.444       .  S
C721       C4064   1.429       .  S
C721        N725   1.341       .  A
C722        C741   1.449       .  S
C722        H726   1.079       .  S
N723        C734   1.340       .  A
N723       Co733   2.083       .  S
C727        C739   1.433       .  S
C727       C4074   1.410       .  S
C727        N743   1.339       .  A
Co729      Cl740   2.455       .  S
N730        C741   1.347       .  A
C731       C4054   1.440       .  S
Co733      Cl740   2.420       .  S
C741       C4087   1.438       .  S
C744        C781   1.455       .  S
C744       C4034   1.419       .  S
C744        N762   1.337       .  A
N745        N762   1.307       .  A
N745        N767   1.313       .  A
N745       Co782   2.033       .  S
C746        C784   1.476       .  S
C746        N771   1.354       .  A
C746        H791   1.081       .  S
H747        C788   1.082       .  S
C748        C752   1.450       .  S
C748        N772   1.327       .  A
C748        H777   1.081       .  S
Co749       N767   2.036       .  S
Co749       N757   2.073       .  S
Co749       N789   2.030       .  S
Co749       N765   2.072       .  S
Co749      Cl793   2.461       .  S
N750        C788   1.350       .  A
N750        N757   1.316       .  A
N750       Co751   2.108       .  S
Co751       N754   2.045       .  S
Co751       N771   2.114       .  S
Co751       N758   2.046       .  S
Co751      Cl793   2.441       .  S
C752       C4304   1.437       .  S
C752        N790   1.335       .  A
N753        N760   1.314       .  A
N753        N783   1.343       .  A
N753       Co786   2.170       .  S
N754        N772   1.327       .  A
N754        N790   1.315       .  A
N755        C784   1.347       .  A
N755        N765   1.322       .  A
H756        C781   1.081       .  S
N757        N778   1.322       .  A
N758        N776   1.328       .  A
N758        N763   1.314       .  A
C759        C787   1.446       .  S
C759       C4024   1.420       .  S
C759        N763   1.333       .  A
N760        C775   1.345       .  A
N760       Co782   2.080       .  S
C761        C764   1.451       .  S
C761        N789   1.331       .  A
C761        H795   1.080       .  S
C764       C4044   1.418       .  S
C764        N785   1.338       .  A
N765        N771   1.315       .  A
N766        C792   1.337       .  A
N766        N768   1.312       .  A
N766       Co782   2.075       .  S
N767        C781   1.333       .  A
N768        N796   1.345       .  A
N768       Co786   2.161       .  S
H769        C792   1.080       .  S
H770        C787   1.081       .  S
N772       Co786   2.070       .  S
N773        N785   1.310       .  A
N773        N789   1.315       .  A
N773       Co782   2.043       .  S
C774        C788   1.472       .  S
C774       C4147   1.484       .  S
C774        N778   1.348       .  A
C775        C794   1.456       .  S
C775        H779   1.081       .  S
N776        C787   1.331       .  A
N776       Co786   2.074       .  S
C780        C792   1.463       .  S
C780       C4834   1.534       .  S
C780        N796   1.375       .  A
Co782      Cl793   2.408       .  S
N783        C794   1.373       .  A
C784       C4097   1.492       .  S
Co786      Cl793   2.467       .  S
C794       C4894   1.522       .  S
C797        C834   1.487       .  S
C797       C4847   1.508       .  S
C797        N815   1.345       .  A
N798        N815   1.326       .  A
N798        N820   1.314       .  A
N798       Co835   2.063       .  S
C799        C837   1.438       .  S
C799        N824   1.330       .  A
C799        H844   1.081       .  S
H800        C841   1.081       .  S
C801        C805   1.456       .  S
C801        N825   1.337       .  A
C801        H830   1.080       .  S
Co802       N820   2.155       .  S
Co802       N810   2.072       .  S
Co802       N842   2.147       .  S
Co802       N818   2.089       .  S
Co802      Cl846   2.432       .  S
N803        C841   1.329       .  A
N803        N810   1.326       .  A
N803       Co804   2.040       .  S
Co804       N807   2.102       .  S
Co804       N824   2.049       .  S
Co804       N811   2.098       .  S
Co804      Cl846   2.458       .  S
C805       C4004   1.485       .  S
C805        N843   1.358       .  A
N806        N813   1.315       .  A
N806        N836   1.312       .  A
N806       Co839   2.044       .  S
N807        N825   1.313       .  A
N807        N843   1.332       .  A
N808        C837   1.346       .  A
N808        N818   1.318       .  A
H809        C834   1.081       .  S
N810        N831   1.314       .  A
N811        N829   1.314       .  A
N811        N816   1.331       .  A
C812        C840   1.463       .  S
C812       C4014   1.489       .  S
C812        N816   1.356       .  A
N813        C828   1.327       .  A
N813       Co835   2.041       .  S
C814        C817   1.497       .  S
C814        N842   1.362       .  A
C814        H848   1.079       .  S
C817       C4544   1.531       .  S
C817        N838   1.351       .  A
N818        N824   1.327       .  A
N819        C845   1.322       .  A
N819        N821   1.318       .  A
N819       Co835   2.025       .  S
N820        C834   1.361       .  A
N821        N849   1.312       .  A
N821       Co839   2.036       .  S
H822        C845   1.080       .  S
H823        C840   1.082       .  S
N825       Co839   2.068       .  S
N826        N838   1.324       .  A
N826        N842   1.310       .  A
N826       Co835   2.073       .  S
C827        C841   1.435       .  S
C827       C3994   1.422       .  S
C827        N831   1.342       .  A
C828        C847   1.455       .  S
C828        H832   1.079       .  S
N829        C840   1.342       .  A
N829       Co839   2.086       .  S
C833        C845   1.435       .  S
C833       C4077   1.410       .  S
C833        N849   1.339       .  A
Co835      Cl846   2.451       .  S
N836        C847   1.344       .  A
C837       C4167   1.437       .  S
Co839      Cl846   2.428       .  S
C847       C4047   1.449       .  S
C850        C887   1.455       .  S
C850       C4124   1.421       .  S
C850        N868   1.324       .  A
N851        N868   1.303       .  A
N851        N873   1.313       .  A
N851       Co888   1.999       .  S
C852        C890   1.476       .  S
C852        N877   1.353       .  A
C852        H897   1.081       .  S
H853        C894   1.082       .  S
C854        C858   1.452       .  S
C854        N878   1.332       .  A
C854        H883   1.081       .  S
Co855       N873   2.036       .  S
Co855       N863   2.075       .  S
Co855       N895   2.033       .  S
Co855       N871   2.069       .  S
Co855      Cl899   2.445       .  S
N856        C894   1.354       .  A
N856        N863   1.316       .  A
N856       Co857   2.120       .  S
Co857       N860   2.047       .  S
Co857       N877   2.114       .  S
Co857       N864   2.048       .  S
Co857      Cl899   2.450       .  S
C858       C3974   1.442       .  S
C858        N896   1.335       .  A
N859        N866   1.314       .  A
N859        N889   1.344       .  A
N859       Co892   2.169       .  S
N860        N878   1.327       .  A
N860        N896   1.315       .  A
N861        C890   1.346       .  A
N861        N871   1.323       .  A
H862        C887   1.081       .  S
N863        N884   1.323       .  A
N864        N882   1.329       .  A
N864        N869   1.315       .  A
C865        C893   1.448       .  S
C865       C4207   1.424       .  S
C865        N869   1.333       .  A
N866        C881   1.345       .  A
N866       Co888   2.083       .  S
C867        C870   1.448       .  S
C867        N895   1.329       .  A
C867        H901   1.079       .  S
C870       C4084   1.440       .  S
C870        N891   1.343       .  A
N871        N877   1.314       .  A
N872        C898   1.339       .  A
N872        N874   1.313       .  A
N872       Co888   2.053       .  S
N873        C887   1.329       .  A
N874        N902   1.344       .  A
N874       Co892   2.177       .  S
H875        C898   1.082       .  S
H876        C893   1.081       .  S
N878       Co892   2.080       .  S
N879        N891   1.310       .  A
N879        N895   1.314       .  A
N879       Co888   2.043       .  S
C880        C894   1.478       .  S
C880       C3987   1.498       .  S
C880        N884   1.349       .  A
C881        C900   1.456       .  S
C881        H885   1.081       .  S
N882        C893   1.332       .  A
N882       Co892   2.084       .  S
C886        C898   1.449       .  S
C886       C5044   1.515       .  S
C886        N902   1.375       .  A
Co888      Cl899   2.426       .  S
N889        C900   1.374       .  A
C890       C4017   1.488       .  S
Co892      Cl899   2.455       .  S
C900       C5107   1.524       .  S
C903        C940   1.464       .  S
C903       C4037   1.450       .  S
C903        N921   1.340       .  A
N904        N921   1.308       .  A
N904        N926   1.314       .  A
N904       Co941   2.036       .  S
C905        C943   1.477       .  S
C905        N930   1.352       .  A
C905        H950   1.081       .  S
H906        C947   1.081       .  S
C907        C911   1.449       .  S
C907        N931   1.330       .  A
C907        H936   1.082       .  S
Co908       N926   2.045       .  S
Co908       N916   2.069       .  S
Co908       N948   2.031       .  S
Co908       N924   2.082       .  S
Co908      Cl952   2.457       .  S
N909        C947   1.349       .  A
N909        N916   1.314       .  A
N909       Co910   2.099       .  S
Co910       N913   2.060       .  S
Co910       N930   2.110       .  S
Co910       N917   2.049       .  S
Co910      Cl952   2.437       .  S
C911       C3954   1.432       .  S
C911        N949   1.338       .  A
N912        N919   1.311       .  A
N912        N942   1.341       .  A
N912       Co945   2.144       .  S
N913        N931   1.328       .  A
N913        N949   1.317       .  A
N914        C943   1.351       .  A
N914        N924   1.324       .  A
H915        C940   1.077       .  S
N916        N937   1.323       .  A
N917        N935   1.327       .  A
N917        N922   1.315       .  A
C918        C946   1.448       .  S
C918       C3964   1.425       .  S
C918        N922   1.336       .  A
N919        C934   1.340       .  A
N919       Co941   2.067       .  S
C920        C923   1.447       .  S
C920        N948   1.331       .  A
C920        H954   1.081       .  S
C923       C4114   1.412       .  S
C923        N944   1.337       .  A
N924        N930   1.315       .  A
N925        C951   1.341       .  A
N925        N927   1.311       .  A
N925       Co941   2.071       .  S
N926        C940   1.332       .  A
N927        N955   1.344       .  A
N927       Co945   2.164       .  S
H928        C951   1.081       .  S
H929        C946   1.082       .  S
N931       Co945   2.076       .  S
N932        N944   1.307       .  A
N932        N948   1.315       .  A
N932       Co941   2.033       .  S
C933        C947   1.471       .  S
C933       C4007   1.483       .  S
C933        N937   1.347       .  A
C934        C953   1.453       .  S
C934        H938   1.082       .  S
N935        C946   1.325       .  A
N935       Co945   2.066       .  S
C939        C951   1.460       .  S
C939       C4787   1.526       .  S
C939        N955   1.374       .  A
Co941      Cl952   2.424       .  S
N942        C953   1.369       .  A
C943       C3984   1.498       .  S
Co945      Cl952   2.450       .  S
C953       C4907   1.509       .  S
C956        C993   1.481       .  S
C956       C4754   1.518       .  S
C956        N974   1.355       .  A
N957        N974   1.330       .  A
N957        N979   1.313       .  A
N957       Co994   2.094       .  S
C958        C996   1.443       .  S
C958        N983   1.331       .  A
C958       H1003   1.082       .  S
H959       C1000   1.082       .  S
C960        C964   1.460       .  S
C960        N984   1.338       .  A
C960        H989   1.082       .  S
Co961       N979   2.133       .  S
Co961       N969   2.060       .  S
Co961      N1001   2.147       .  S
Co961       N977   2.063       .  S
Co961     Cl1005   2.422       .  S
N962       C1000   1.331       .  A
N962        N969   1.324       .  A
N962       Co963   2.053       .  S
Co963       N966   2.099       .  S
Co963       N983   2.046       .  S
Co963       N970   2.120       .  S
Co963     Cl1005   2.468       .  S
C964       C3934   1.487       .  S
C964       N1002   1.357       .  A
N965        N972   1.316       .  A
N965        N995   1.313       .  A
N965       Co998   2.022       .  S
N966        N984   1.315       .  A
N966       N1002   1.332       .  A
N967        C996   1.339       .  A
N967        N977   1.310       .  A
H968        C993   1.081       .  S
N969        N990   1.311       .  A
N970        N988   1.313       .  A
N970        N975   1.336       .  A
C971        C999   1.449       .  S
C971       C3944   1.491       .  S
C971        N975   1.365       .  A
N972        C987   1.314       .  A
N972       Co994   2.007       .  S
C973        C976   1.487       .  S
C973       N1001   1.361       .  A
C973       H1007   1.081       .  S
C976       C3924   1.502       .  S
C976        N997   1.342       .  A
N977        N983   1.326       .  A
N978       C1004   1.321       .  A
N978        N980   1.314       .  A
N978       Co994   2.035       .  S
N979        C993   1.357       .  A
N980       N1008   1.316       .  A
N980       Co998   2.036       .  S
H981       C1004   1.080       .  S
H982        C999   1.082       .  S
N984       Co998   2.079       .  S
N985        N997   1.324       .  A
N985       N1001   1.314       .  A
N985       Co994   2.058       .  S
C986       C1000   1.446       .  S
C986       C3884   1.431       .  S
C986        N990   1.339       .  A
C987       C1006   1.431       .  S
C987        H991   1.079       .  S
N988        C999   1.330       .  A
N988       Co998   2.048       .  S
C992       C1004   1.448       .  S
C992       C3914   1.436       .  S
C992       N1008   1.342       .  A
Co994     Cl1005   2.444       .  S
N995       C1006   1.336       .  A
C996       C3894   1.430       .  S
Co998     Cl1005   2.415       .  S
C1006      C3904   1.399       .  S
C1009      C1046   1.489       .  S
C1009      C4597   1.525       .  S
C1009      N1027   1.352       .  A
N1010      N1027   1.330       .  A
N1010      N1032   1.314       .  A
N1010     Co1047   2.083       .  S
C1011      C1049   1.435       .  S
C1011      N1036   1.325       .  A
C1011      H1056   1.081       .  S
H1012      C1053   1.077       .  S
C1013      C1017   1.461       .  S
C1013      N1037   1.340       .  A
C1013      H1042   1.082       .  S
Co1014     N1032   2.161       .  S
Co1014     N1022   2.068       .  S
Co1014     N1054   2.166       .  S
Co1014     N1030   2.074       .  S
Co1014    Cl1058   2.429       .  S
N1015      C1053   1.340       .  A
N1015      N1022   1.323       .  A
N1015     Co1016   2.064       .  S
Co1016     N1019   2.092       .  S
Co1016     N1036   2.039       .  S
Co1016     N1023   2.133       .  S
Co1016    Cl1058   2.473       .  S
C1017      C3947   1.489       .  S
C1017      N1055   1.356       .  A
N1018      N1025   1.315       .  A
N1018      N1048   1.309       .  A
N1018     Co1051   2.007       .  S
N1019      N1037   1.315       .  A
N1019      N1055   1.331       .  A
N1020      C1049   1.343       .  A
N1020      N1030   1.316       .  A
H1021      C1046   1.081       .  S
N1022      N1043   1.307       .  A
N1023      N1041   1.315       .  A
N1023      N1028   1.337       .  A
C1024      C1052   1.451       .  S
C1024      C3874   1.495       .  S
C1024      N1028   1.365       .  A
N1025      C1040   1.317       .  A
N1025     Co1047   2.012       .  S
C1026      C1029   1.494       .  S
C1026      N1054   1.365       .  A
C1026      H1060   1.081       .  S
C1029      C4494   1.516       .  S
C1029      N1050   1.344       .  A
N1030      N1036   1.327       .  A
N1031      C1057   1.322       .  A
N1031      N1033   1.315       .  A
N1031     Co1047   2.029       .  S
N1032      C1046   1.363       .  A
N1033      N1061   1.313       .  A
N1033     Co1051   2.042       .  S
H1034      C1057   1.080       .  S
H1035      C1052   1.082       .  S
N1037     Co1051   2.087       .  S
N1038      N1050   1.325       .  A
N1038      N1054   1.314       .  A
N1038     Co1047   2.063       .  S
C1039      C1053   1.459       .  S
C1039      C3844   1.464       .  S
C1039      N1043   1.344       .  A
C1040      C1059   1.433       .  S
C1040      H1044   1.079       .  S
N1041      C1052   1.333       .  A
N1041     Co1051   2.054       .  S
C1045      C1057   1.442       .  S
C1045      C3854   1.426       .  S
C1045      N1061   1.343       .  A
Co1047    Cl1058   2.447       .  S
N1048      C1059   1.333       .  A
C1049      C4357   1.428       .  S
Co1051    Cl1058   2.419       .  S
C1059      C3864   1.392       .  S
C1062      C1099   1.500       .  S
C1062      C4677   1.534       .  S
C1062      N1080   1.351       .  A
N1063      N1080   1.325       .  A
N1063      N1085   1.311       .  A
N1063     Co1100   2.071       .  S
C1064      C1102   1.438       .  S
C1064      N1089   1.327       .  A
C1064      H1109   1.082       .  S
H1065      C1106   1.081       .  S
C1066      C1070   1.461       .  S
C1066      N1090   1.340       .  A
C1066      H1095   1.082       .  S
Co1067     N1085   2.157       .  S
Co1067     N1075   2.072       .  S
Co1067     N1107   2.159       .  S
Co1067     N1083   2.064       .  S
Co1067    Cl1111   2.435       .  S
N1068      C1106   1.328       .  A
N1068      N1075   1.327       .  A
N1068     Co1069   2.045       .  S
Co1069     N1072   2.104       .  S
Co1069     N1089   2.034       .  S
Co1069     N1076   2.109       .  S
Co1069    Cl1111   2.460       .  S
C1070      C3877   1.494       .  S
C1070      N1108   1.358       .  A
N1071      N1078   1.316       .  A
N1071      N1101   1.311       .  A
N1071     Co1104   2.014       .  S
N1072      N1090   1.314       .  A
N1072      N1108   1.333       .  A
N1073      C1102   1.343       .  A
N1073      N1083   1.311       .  A
H1074      C1099   1.079       .  S
N1075      N1096   1.316       .  A
N1076      N1094   1.314       .  A
N1076      N1081   1.333       .  A
C1077      C1105   1.457       .  S
C1077      C3937   1.486       .  S
C1077      N1081   1.360       .  A
N1078      C1093   1.322       .  A
N1078     Co1100   2.036       .  S
C1079      C1082   1.493       .  S
C1079      N1107   1.364       .  A
C1079      H1113   1.081       .  S
C1082      C4417   1.522       .  S
C1082      N1103   1.349       .  A
N1083      N1089   1.324       .  A
N1084      C1110   1.320       .  A
N1084      N1086   1.315       .  A
N1084     Co1100   2.027       .  S
N1085      C1099   1.363       .  A
N1086      N1114   1.314       .  A
N1086     Co1104   2.031       .  S
H1087      C1110   1.079       .  S
H1088      C1105   1.082       .  S
N1090     Co1104   2.083       .  S
N1091      N1103   1.327       .  A
N1091      N1107   1.313       .  A
N1091     Co1100   2.077       .  S
C1092      C1106   1.436       .  S
C1092      C4317   1.419       .  S
C1092      N1096   1.341       .  A
C1093      C1112   1.441       .  S
C1093      H1097   1.079       .  S
N1094      C1105   1.335       .  A
N1094     Co1104   2.065       .  S
C1098      C1110   1.439       .  S
C1098      C3834   1.418       .  S
C1098      N1114   1.341       .  A
Co1100    Cl1111   2.437       .  S
N1101      C1112   1.336       .  A
C1102      C3814   1.420       .  S
Co1104    Cl1111   2.432       .  S
C1112      C3824   1.403       .  S
C1115      C1152   1.487       .  S
C1115      C4607   1.519       .  S
C1115      N1133   1.350       .  A
N1116      N1133   1.329       .  A
N1116      N1138   1.313       .  A
N1116     Co1153   2.084       .  S
C1117      C1155   1.435       .  S
C1117      N1142   1.328       .  A
C1117      H1162   1.082       .  S
H1118      C1159   1.081       .  S
C1119      C1123   1.463       .  S
C1119      N1143   1.343       .  A
C1119      H1148   1.081       .  S
Co1120     N1138   2.151       .  S
Co1120     N1128   2.071       .  S
Co1120     N1160   2.167       .  S
Co1120     N1136   2.063       .  S
Co1120    Cl1164   2.429       .  S
N1121      C1159   1.329       .  A
N1121      N1128   1.325       .  A
N1121     Co1122   2.048       .  S
Co1122     N1125   2.098       .  S
Co1122     N1142   2.034       .  S
Co1122     N1129   2.122       .  S
Co1122    Cl1164   2.465       .  S
C1123      C3794   1.489       .  S
C1123      N1161   1.355       .  A
N1124      N1131   1.315       .  A
N1124      N1154   1.310       .  A
N1124     Co1157   2.025       .  S
N1125      N1143   1.314       .  A
N1125      N1161   1.331       .  A
N1126      C1155   1.339       .  A
N1126      N1136   1.310       .  A
H1127      C1152   1.081       .  S
N1128      N1149   1.313       .  A
N1129      N1147   1.313       .  A
N1129      N1134   1.337       .  A
C1130      C1158   1.453       .  S
C1130      C3804   1.497       .  S
C1130      N1134   1.366       .  A
N1131      C1146   1.317       .  A
N1131     Co1153   2.004       .  S
C1132      C1135   1.500       .  S
C1132      N1160   1.366       .  A
C1132      H1166   1.081       .  S
C1135      C3784   1.528       .  S
C1135      N1156   1.347       .  A
N1136      N1142   1.326       .  A
N1137      C1163   1.324       .  A
N1137      N1139   1.314       .  A
N1137     Co1153   2.041       .  S
N1138      C1152   1.362       .  A
N1139      N1167   1.314       .  A
N1139     Co1157   2.036       .  S
H1140      C1163   1.077       .  S
H1141      C1158   1.082       .  S
N1143     Co1157   2.087       .  S
N1144      N1156   1.324       .  A
N1144      N1160   1.313       .  A
N1144     Co1153   2.067       .  S
C1145      C1159   1.440       .  S
C1145      C3774   1.423       .  S
C1145      N1149   1.344       .  A
C1146      C1165   1.427       .  S
C1146      H1150   1.079       .  S
N1147      C1158   1.333       .  A
N1147     Co1157   2.060       .  S
C1151      C1163   1.452       .  S
C1151      C3917   1.439       .  S
C1151      N1167   1.345       .  A
Co1153    Cl1164   2.449       .  S
N1154      C1165   1.339       .  A
C1155      C4214   1.419       .  S
Co1157    Cl1164   2.419       .  S
C1165      C3867   1.405       .  S
C1168      C1205   1.486       .  S
C1168      C4687   1.514       .  S
C1168      N1186   1.347       .  A
N1169      N1186   1.326       .  A
N1169      N1191   1.311       .  A
N1169     Co1206   2.077       .  S
C1170      C1208   1.442       .  S
C1170      N1195   1.332       .  A
C1170      H1215   1.082       .  S
H1171      C1212   1.081       .  S
C1172      C1176   1.459       .  S
C1172      N1196   1.340       .  A
C1172      H1201   1.082       .  S
Co1173     N1191   2.139       .  S
Co1173     N1181   2.074       .  S
Co1173     N1213   2.169       .  S
Co1173     N1189   2.055       .  S
Co1173    Cl1217   2.433       .  S
N1174      C1212   1.331       .  A
N1174      N1181   1.326       .  A
N1174     Co1175   2.055       .  S
Co1175     N1178   2.098       .  S
Co1175     N1195   2.046       .  S
Co1175     N1182   2.117       .  S
Co1175    Cl1217   2.460       .  S
C1176      C3764   1.485       .  S
C1176      N1214   1.356       .  A
N1177      N1184   1.315       .  A
N1177      N1207   1.315       .  A
N1177     Co1210   2.036       .  S
N1178      N1196   1.314       .  A
N1178      N1214   1.331       .  A
N1179      C1208   1.337       .  A
N1179      N1189   1.309       .  A
H1180      C1205   1.081       .  S
N1181      N1202   1.315       .  A
N1182      N1200   1.317       .  A
N1182      N1187   1.334       .  A
C1183      C1211   1.453       .  S
C1183      C3797   1.488       .  S
C1183      N1187   1.361       .  A
N1184      C1199   1.320       .  A
N1184     Co1206   2.032       .  S
C1185      C1188   1.493       .  S
C1185      N1213   1.364       .  A
C1185      H1219   1.081       .  S
C1188      C4507   1.520       .  S
C1188      N1209   1.347       .  A
N1189      N1195   1.325       .  A
N1190      C1216   1.322       .  A
N1190      N1192   1.315       .  A
N1190     Co1206   2.034       .  S
N1191      C1205   1.362       .  A
N1192      N1220   1.314       .  A
N1192     Co1210   2.025       .  S
H1193      C1216   1.080       .  S
H1194      C1211   1.082       .  S
N1196     Co1210   2.077       .  S
N1197      N1209   1.328       .  A
N1197      N1213   1.315       .  A
N1197     Co1206   2.071       .  S
C1198      C1212   1.442       .  S
C1198      C3744   1.426       .  S
C1198      N1202   1.343       .  A
C1199      C1218   1.436       .  S
C1199      H1203   1.075       .  S
N1200      C1211   1.337       .  A
N1200     Co1210   2.076       .  S
C1204      C1216   1.441       .  S
C1204      C3857   1.415       .  S
C1204      N1220   1.339       .  A
Co1206    Cl1217   2.434       .  S
N1207      C1218   1.346       .  A
C1208      C3754   1.428       .  S
Co1210    Cl1217   2.439       .  S
C1218      C3827   1.432       .  S
C1221      C1258   1.492       .  S
C1221      C4767   1.527       .  S
C1221      N1239   1.352       .  A
N1222      N1239   1.325       .  A
N1222      N1244   1.310       .  A
N1222     Co1259   2.075       .  S
C1223      C1261   1.437       .  S
C1223      N1248   1.330       .  A
C1223      H1268   1.082       .  S
H1224      C1265   1.081       .  S
C1225      C1229   1.463       .  S
C1225      N1249   1.342       .  A
C1225      H1254   1.082       .  S
Co1226     N1244   2.140       .  S
Co1226     N1234   2.086       .  S
Co1226     N1266   2.179       .  S
Co1226     N1242   2.063       .  S
Co1226    Cl1270   2.434       .  S
N1227      C1265   1.326       .  A
N1227      N1234   1.326       .  A
N1227     Co1228   2.044       .  S
Co1228     N1231   2.104       .  S
Co1228     N1248   2.040       .  S
Co1228     N1235   2.107       .  S
Co1228    Cl1270   2.462       .  S
C1229      C3807   1.497       .  S
C1229      N1267   1.357       .  A
N1230      N1237   1.317       .  A
N1230      N1260   1.309       .  A
N1230     Co1263   2.031       .  S
N1231      N1249   1.313       .  A
N1231      N1267   1.333       .  A
N1232      C1261   1.340       .  A
N1232      N1242   1.311       .  A
H1233      C1258   1.079       .  S
N1234      N1255   1.319       .  A
N1235      N1253   1.316       .  A
N1235      N1240   1.333       .  A
C1236      C1264   1.454       .  S
C1236      C3767   1.486       .  S
C1236      N1240   1.360       .  A
N1237      C1252   1.323       .  A
N1237     Co1259   2.020       .  S
C1238      C1241   1.497       .  S
C1238      N1266   1.367       .  A
C1238      H1272   1.081       .  S
C1241      C4424   1.519       .  S
C1241      N1262   1.343       .  A
N1242      N1248   1.326       .  A
N1243      C1269   1.322       .  A
N1243      N1245   1.315       .  A
N1243     Co1259   2.029       .  S
N1244      C1258   1.360       .  A
N1245      N1273   1.312       .  A
N1245     Co1263   2.026       .  S
H1246      C1269   1.080       .  S
H1247      C1264   1.082       .  S
N1249     Co1263   2.083       .  S
N1250      N1262   1.326       .  A
N1250      N1266   1.315       .  A
N1250     Co1259   2.059       .  S
C1251      C1265   1.440       .  S
C1251      C4187   1.438       .  S
C1251      N1255   1.347       .  A
C1252      C1271   1.432       .  S
C1252      H1256   1.079       .  S
N1253      C1264   1.337       .  A
N1253     Co1263   2.074       .  S
C1257      C1269   1.443       .  S
C1257      C3837   1.415       .  S
C1257      N1273   1.340       .  A
Co1259    Cl1270   2.444       .  S
N1260      C1271   1.339       .  A
C1261      C3734   1.424       .  S
Co1263    Cl1270   2.424       .  S
C1271      C3907   1.412       .  S
C1274      C1311   1.484       .  S
C1274      C5077   1.521       .  S
C1274      N1292   1.354       .  A
N1275      N1292   1.330       .  A
N1275      N1297   1.314       .  A
N1275     Co1312   2.091       .  S
C1276      C1314   1.440       .  S
C1276      N1301   1.330       .  A
C1276      H1321   1.081       .  S
H1277      C1318   1.082       .  S
C1278      C1282   1.466       .  S
C1278      N1302   1.343       .  A
C1278      H1307   1.082       .  S
Co1279     N1297   2.143       .  S
Co1279     N1287   2.068       .  S
Co1279     N1319   2.165       .  S
Co1279     N1295   2.070       .  S
Co1279    Cl1323   2.437       .  S
N1280      C1318   1.331       .  A
N1280      N1287   1.323       .  A
N1280     Co1281   2.048       .  S
Co1281     N1284   2.095       .  S
Co1281     N1301   2.042       .  S
Co1281     N1288   2.119       .  S
Co1281    Cl1323   2.456       .  S
C1282      C3714   1.489       .  S
C1282      N1320   1.355       .  A
N1283      N1290   1.317       .  A
N1283      N1313   1.313       .  A
N1283     Co1316   2.031       .  S
N1284      N1302   1.316       .  A
N1284      N1320   1.330       .  A
N1285      C1314   1.343       .  A
N1285      N1295   1.311       .  A
H1286      C1311   1.081       .  S
N1287      N1308   1.313       .  A
N1288      N1306   1.314       .  A
N1288      N1293   1.334       .  A
C1289      C1317   1.457       .  S
C1289      C3724   1.493       .  S
C1289      N1293   1.362       .  A
N1290      C1305   1.315       .  A
N1290     Co1312   2.002       .  S
C1291      C1294   1.497       .  S
C1291      N1319   1.367       .  A
C1291      H1325   1.081       .  S
C1294      C4734   1.512       .  S
C1294      N1315   1.338       .  A
N1295      N1301   1.326       .  A
N1296      C1322   1.326       .  A
N1296      N1298   1.315       .  A
N1296     Co1312   2.034       .  S
N1297      C1311   1.359       .  A
N1298      N1326   1.311       .  A
N1298     Co1316   2.050       .  S
H1299      C1322   1.077       .  S
H1300      C1317   1.082       .  S
N1302     Co1316   2.096       .  S
N1303      N1315   1.322       .  A
N1303      N1319   1.311       .  A
N1303     Co1312   2.041       .  S
C1304      C1318   1.443       .  S
C1304      C3684   1.429       .  S
C1304      N1308   1.343       .  A
C1305      C1324   1.425       .  S
C1305      H1309   1.080       .  S
N1306      C1317   1.338       .  A
N1306     Co1316   2.069       .  S
C1310      C1322   1.435       .  S
C1310      C3704   1.441       .  S
C1310      N1326   1.348       .  A
Co1312    Cl1323   2.432       .  S
N1313      C1324   1.339       .  A
C1314      C3887   1.430       .  S
Co1316    Cl1323   2.434       .  S
C1324      C3694   1.404       .  S
C1327      C1364   1.438       .  S
C1327      C3664   1.392       .  S
C1327      N1345   1.330       .  A
N1328      N1345   1.304       .  A
N1328      N1350   1.315       .  A
N1328     Co1365   2.011       .  S
C1329      C1367   1.478       .  S
C1329      N1354   1.354       .  A
C1329      H1374   1.081       .  S
H1330      C1371   1.082       .  S
C1331      C1335   1.451       .  S
C1331      N1355   1.331       .  A
C1331      H1360   1.081       .  S
Co1332     N1350   2.011       .  S
Co1332     N1340   2.095       .  S
Co1332     N1372   2.042       .  S
Co1332     N1348   2.068       .  S
Co1332    Cl1376   2.460       .  S
N1333      C1371   1.351       .  A
N1333      N1340   1.314       .  A
N1333     Co1334   2.103       .  S
Co1334     N1337   2.047       .  S
Co1334     N1354   2.121       .  S
Co1334     N1341   2.038       .  S
Co1334    Cl1376   2.438       .  S
C1335      C4027   1.423       .  S
C1335      N1373   1.336       .  A
N1336      N1343   1.313       .  A
N1336      N1366   1.341       .  A
N1336     Co1369   2.152       .  S
N1337      N1355   1.327       .  A
N1337      N1373   1.315       .  A
N1338      C1367   1.348       .  A
N1338      N1348   1.323       .  A
H1339      C1364   1.080       .  S
N1340      N1361   1.327       .  A
N1341      N1359   1.328       .  A
N1341      N1346   1.313       .  A
C1342      C1370   1.444       .  S
C1342      C3817   1.415       .  S
C1342      N1346   1.331       .  A
N1343      C1358   1.350       .  A
N1343     Co1365   2.095       .  S
C1344      C1347   1.468       .  S
C1344      N1372   1.329       .  A
C1344      H1378   1.079       .  S
C1347      C3654   1.450       .  S
C1347      N1368   1.339       .  A
N1348      N1354   1.315       .  A
N1349      C1375   1.340       .  A
N1349      N1351   1.312       .  A
N1349     Co1365   2.056       .  S
N1350      C1364   1.325       .  A
N1351      N1379   1.346       .  A
N1351     Co1369   2.184       .  S
H1352      C1375   1.082       .  S
H1353      C1370   1.082       .  S
N1355     Co1369   2.080       .  S
N1356      N1368   1.308       .  A
N1356      N1372   1.313       .  A
N1356     Co1365   2.035       .  S
C1357      C1371   1.471       .  S
C1357      C3674   1.500       .  S
C1357      N1361   1.354       .  A
C1358      C1377   1.465       .  S
C1358      H1362   1.081       .  S
N1359      C1370   1.325       .  A
N1359     Co1369   2.062       .  S
C1363      C1375   1.446       .  S
C1363      C4437   1.520       .  S
C1363      N1379   1.378       .  A
Co1365    Cl1376   2.412       .  S
N1366      C1377   1.368       .  A
C1367      C3727   1.492       .  S
Co1369    Cl1376   2.459       .  S
C1377      C4817   1.523       .  S
C1380      C1417   1.463       .  S
C1380      C3644   1.445       .  S
C1380      N1398   1.339       .  A
N1381      N1398   1.308       .  A
N1381      N1403   1.312       .  A
N1381     Co1418   2.028       .  S
C1382      C1420   1.482       .  S
C1382      N1407   1.354       .  A
C1382      H1427   1.081       .  S
H1383      C1424   1.081       .  S
C1384      C1388   1.450       .  S
C1384      N1408   1.332       .  A
C1384      H1413   1.081       .  S
Co1385     N1403   2.039       .  S
Co1385     N1393   2.069       .  S
Co1385     N1425   2.031       .  S
Co1385     N1401   2.077       .  S
Co1385    Cl1429   2.450       .  S
N1386      C1424   1.353       .  A
N1386      N1393   1.315       .  A
N1386     Co1387   2.113       .  S
Co1387     N1390   2.062       .  S
Co1387     N1407   2.123       .  S
Co1387     N1394   2.058       .  S
Co1387    Cl1429   2.449       .  S
C1388      C3624   1.439       .  S
C1388      N1426   1.339       .  A
N1389      N1396   1.312       .  A
N1389      N1419   1.342       .  A
N1389     Co1422   2.163       .  S
N1390      N1408   1.328       .  A
N1390      N1426   1.319       .  A
N1391      C1420   1.350       .  A
N1391      N1401   1.323       .  A
H1392      C1417   1.078       .  S
N1393      N1414   1.322       .  A
N1394      N1412   1.327       .  A
N1394      N1399   1.317       .  A
C1395      C1423   1.448       .  S
C1395      C4057   1.440       .  S
C1395      N1399   1.338       .  A
N1396      C1411   1.340       .  A
N1396     Co1418   2.058       .  S
C1397      C1400   1.455       .  S
C1397      N1425   1.327       .  A
C1397      H1431   1.082       .  S
C1400      C3634   1.428       .  S
C1400      N1421   1.329       .  A
N1401      N1407   1.316       .  A
N1402      C1428   1.340       .  A
N1402      N1404   1.314       .  A
N1402     Co1418   2.063       .  S
N1403      C1417   1.331       .  A
N1404      N1432   1.345       .  A
N1404     Co1422   2.177       .  S
H1405      C1428   1.081       .  S
H1406      C1423   1.081       .  S
N1408     Co1422   2.082       .  S
N1409      N1421   1.307       .  A
N1409      N1425   1.313       .  A
N1409     Co1418   2.018       .  S
C1410      C1424   1.475       .  S
C1410      C3717   1.487       .  S
C1410      N1414   1.347       .  A
C1411      C1430   1.450       .  S
C1411      H1415   1.082       .  S
N1412      C1423   1.330       .  A
N1412     Co1422   2.073       .  S
C1416      C1428   1.450       .  S
C1416      C4554   1.518       .  S
C1416      N1432   1.375       .  A
Co1418    Cl1429   2.420       .  S
N1419      C1430   1.371       .  A
C1420      C3677   1.504       .  S
Co1422    Cl1429   2.455       .  S
C1430      C4634   1.511       .  S
C1433      C1470   1.495       .  S
C1433      C5087   1.535       .  S
C1433      N1451   1.355       .  A
N1434      N1451   1.327       .  A
N1434      N1456   1.310       .  A
N1434     Co1471   2.089       .  S
C1435      C1473   1.434       .  S
C1435      N1460   1.329       .  A
C1435      H1480   1.081       .  S
H1436      C1477   1.080       .  S
C1437      C1441   1.464       .  S
C1437      N1461   1.341       .  A
C1437      H1466   1.081       .  S
Co1438     N1456   2.143       .  S
Co1438     N1446   2.093       .  S
Co1438     N1478   2.175       .  S
Co1438     N1454   2.075       .  S
Co1438    Cl1482   2.437       .  S
N1439      C1477   1.329       .  A
N1439      N1446   1.329       .  A
N1439     Co1440   2.053       .  S
Co1440     N1443   2.104       .  S
Co1440     N1460   2.044       .  S
Co1440     N1447   2.115       .  S
Co1440    Cl1482   2.461       .  S
C1441      C3614   1.496       .  S
C1441      N1479   1.358       .  A
N1442      N1449   1.318       .  A
N1442      N1472   1.311       .  A
N1442     Co1475   2.035       .  S
N1443      N1461   1.312       .  A
N1443      N1479   1.333       .  A
N1444      C1473   1.340       .  A
N1444      N1454   1.313       .  A
H1445      C1470   1.079       .  S
N1446      N1467   1.319       .  A
N1447      N1465   1.313       .  A
N1447      N1452   1.335       .  A
C1448      C1476   1.459       .  S
C1448      C3604   1.499       .  S
C1448      N1452   1.363       .  A
N1449      C1464   1.324       .  A
N1449     Co1471   2.022       .  S
C1450      C1453   1.497       .  S
C1450      N1478   1.367       .  A
C1450      H1484   1.081       .  S
C1453      C4647   1.521       .  S
C1453      N1474   1.344       .  A
N1454      N1460   1.329       .  A
N1455      C1481   1.324       .  A
N1455      N1457   1.317       .  A
N1455     Co1471   2.042       .  S
N1456      C1470   1.361       .  A
N1457      N1485   1.315       .  A
N1457     Co1475   2.036       .  S
H1458      C1481   1.080       .  S
H1459      C1476   1.081       .  S
N1461     Co1475   2.079       .  S
N1462      N1474   1.326       .  A
N1462      N1478   1.314       .  A
N1462     Co1471   2.059       .  S
C1463      C1477   1.438       .  S
C1463      C3977   1.439       .  S
C1463      N1467   1.347       .  A
C1464      C1483   1.430       .  S
C1464      H1468   1.079       .  S
N1465      C1476   1.336       .  A
N1465     Co1475   2.072       .  S
C1469      C1481   1.443       .  S
C1469      C3647   1.418       .  S
C1469      N1485   1.342       .  A
Co1471    Cl1482   2.450       .  S
N1472      C1483   1.338       .  A
C1473      C3777   1.420       .  S
Co1475    Cl1482   2.433       .  S
C1483      C3697   1.403       .  S
C1486      C1523   1.457       .  S
C1486      C3667   1.421       .  S
C1486      N1504   1.324       .  A
N1487      N1504   1.304       .  A
N1487      N1509   1.312       .  A
N1487     Co1524   2.010       .  S
C1488      C1526   1.480       .  S
C1488      N1513   1.355       .  A
C1488      H1533   1.081       .  S
H1489      C1530   1.081       .  S
C1490      C1494   1.450       .  S
C1490      N1514   1.328       .  A
C1490      H1519   1.082       .  S
Co1491     N1509   2.026       .  S
Co1491     N1499   2.069       .  S
Co1491     N1531   2.021       .  S
Co1491     N1507   2.071       .  S
Co1491    Cl1535   2.457       .  S
N1492      C1530   1.350       .  A
N1492      N1499   1.314       .  A
N1492     Co1493   2.100       .  S
Co1493     N1496   2.054       .  S
Co1493     N1513   2.124       .  S
Co1493     N1500   2.042       .  S
Co1493    Cl1535   2.438       .  S
C1494      C3584   1.426       .  S
C1494      N1532   1.336       .  A
N1495      N1502   1.306       .  A
N1495      N1525   1.347       .  A
N1495     Co1528   2.170       .  S
N1496      N1514   1.327       .  A
N1496      N1532   1.315       .  A
N1497      C1526   1.347       .  A
N1497      N1507   1.322       .  A
H1498      C1523   1.081       .  S
N1499      N1520   1.321       .  A
N1500      N1518   1.326       .  A
N1500      N1505   1.315       .  A
C1501      C1529   1.450       .  S
C1501      C3757   1.428       .  S
C1501      N1505   1.336       .  A
N1502      C1517   1.332       .  A
N1502     Co1524   2.062       .  S
C1503      C1506   1.445       .  S
C1503      N1531   1.329       .  A
C1503      H1537   1.081       .  S
C1506      C3637   1.408       .  S
C1506      N1527   1.334       .  A
N1507      N1513   1.316       .  A
N1508      C1534   1.338       .  A
N1508      N1510   1.312       .  A
N1508     Co1524   2.052       .  S
N1509      C1523   1.327       .  A
N1510      N1538   1.341       .  A
N1510     Co1528   2.163       .  S
H1511      C1534   1.082       .  S
H1512      C1529   1.082       .  S
N1514     Co1528   2.070       .  S
N1515      N1527   1.306       .  A
N1515      N1531   1.314       .  A
N1515     Co1524   2.024       .  S
C1516      C1530   1.471       .  S
C1516      C3594   1.484       .  S
C1516      N1520   1.348       .  A
C1517      C1536   1.460       .  S
C1517      H1521   1.067       .  S
N1518      C1529   1.324       .  A
N1518     Co1528   2.065       .  S
C1522      C1534   1.451       .  S
C1522      C4567   1.510       .  S
C1522      N1538   1.372       .  A
Co1524    Cl1535   2.397       .  S
N1525      C1536   1.383       .  A
C1526      C3607   1.496       .  S
Co1528    Cl1535   2.459       .  S
C1536      C4824   1.545       .  S
C1539      C1576   1.444       .  S
C1539      C3707   1.410       .  S
C1539      N1557   1.336       .  A
N1540      N1557   1.306       .  A
N1540      N1562   1.315       .  A
N1540     Co1577   2.033       .  S
C1541      C1579   1.472       .  S
C1541      N1566   1.350       .  A
C1541      H1586   1.081       .  S
H1542      C1583   1.081       .  S
C1543      C1547   1.447       .  S
C1543      N1567   1.327       .  A
C1543      H1572   1.082       .  S
Co1544     N1562   2.019       .  S
Co1544     N1552   2.069       .  S
Co1544     N1584   2.026       .  S
Co1544     N1560   2.065       .  S
Co1544    Cl1588   2.459       .  S
N1545      C1583   1.355       .  A
N1545      N1552   1.316       .  A
N1545     Co1546   2.121       .  S
Co1546     N1549   2.041       .  S
Co1546     N1566   2.099       .  S
Co1546     N1553   2.055       .  S
Co1546    Cl1588   2.442       .  S
C1547      C3967   1.424       .  S
C1547      N1585   1.335       .  A
N1548      N1555   1.315       .  A
N1548      N1578   1.343       .  A
N1548     Co1581   2.164       .  S
N1549      N1567   1.326       .  A
N1549      N1585   1.314       .  A
N1550      C1579   1.347       .  A
N1550      N1560   1.321       .  A
H1551      C1576   1.081       .  S
N1552      N1573   1.322       .  A
N1553      N1571   1.327       .  A
N1553      N1558   1.315       .  A
C1554      C1582   1.451       .  S
C1554      C3574   1.436       .  S
C1554      N1558   1.337       .  A
N1555      C1570   1.345       .  A
N1555     Co1577   2.084       .  S
C1556      C1559   1.449       .  S
C1556      N1584   1.331       .  A
C1556      H1590   1.081       .  S
C1559      C3657   1.419       .  S
C1559      N1580   1.340       .  A
N1560      N1566   1.314       .  A
N1561      C1587   1.340       .  A
N1561      N1563   1.311       .  A
N1561     Co1577   2.070       .  S
N1562      C1576   1.330       .  A
N1563      N1591   1.343       .  A
N1563     Co1581   2.156       .  S
H1564      C1587   1.081       .  S
H1565      C1582   1.081       .  S
N1567     Co1581   2.065       .  S
N1568      N1580   1.307       .  A
N1568      N1584   1.314       .  A
N1568     Co1577   2.045       .  S
C1569      C1583   1.479       .  S
C1569      C3617   1.493       .  S
C1569      N1573   1.346       .  A
C1570      C1589   1.460       .  S
C1570      H1574   1.082       .  S
N1571      C1582   1.333       .  A
N1571     Co1581   2.079       .  S
C1575      C1587   1.459       .  S
C1575      C4444   1.523       .  S
C1575      N1591   1.372       .  A
Co1577    Cl1588   2.407       .  S
N1578      C1589   1.372       .  A
C1579      C3597   1.485       .  S
Co1581    Cl1588   2.458       .  S
C1589      C4747   1.522       .  S
C1592      C1629   1.461       .  S
C1592      C3544   1.451       .  S
C1592      N1610   1.342       .  A
N1593      N1610   1.309       .  A
N1593      N1615   1.313       .  A
N1593     Co1630   2.031       .  S
C1594      C1632   1.475       .  S
C1594      N1619   1.354       .  A
C1594      H1639   1.081       .  S
H1595      C1636   1.081       .  S
C1596      C1600   1.448       .  S
C1596      N1620   1.332       .  A
C1596      H1625   1.081       .  S
Co1597     N1615   2.046       .  S
Co1597     N1605   2.073       .  S
Co1597     N1637   2.034       .  S
Co1597     N1613   2.073       .  S
Co1597    Cl1641   2.440       .  S
N1598      C1636   1.355       .  A
N1598      N1605   1.315       .  A
N1598     Co1599   2.120       .  S
Co1599     N1602   2.045       .  S
Co1599     N1619   2.109       .  S
Co1599     N1606   2.060       .  S
Co1599    Cl1641   2.452       .  S
C1600      C3524   1.421       .  S
C1600      N1638   1.335       .  A
N1601      N1608   1.314       .  A
N1601      N1631   1.343       .  A
N1601     Co1634   2.159       .  S
N1602      N1620   1.327       .  A
N1602      N1638   1.314       .  A
N1603      C1632   1.346       .  A
N1603      N1613   1.322       .  A
H1604      C1629   1.074       .  S
N1605      N1626   1.323       .  A
N1606      N1624   1.328       .  A
N1606      N1611   1.317       .  A
C1607      C1635   1.449       .  S
C1607      C3627   1.439       .  S
C1607      N1611   1.337       .  A
N1608      C1623   1.341       .  A
N1608     Co1630   2.077       .  S
C1609      C1612   1.449       .  S
C1609      N1637   1.330       .  A
C1609      H1643   1.079       .  S
C1612      C3534   1.436       .  S
C1612      N1633   1.342       .  A
N1613      N1619   1.315       .  A
N1614      C1640   1.336       .  A
N1614      N1616   1.313       .  A
N1614     Co1630   2.068       .  S
N1615      C1629   1.331       .  A
N1616      N1644   1.345       .  A
N1616     Co1634   2.169       .  S
H1617      C1640   1.081       .  S
H1618      C1635   1.081       .  S
N1620     Co1634   2.076       .  S
N1621      N1633   1.309       .  A
N1621      N1637   1.313       .  A
N1621     Co1630   2.038       .  S
C1622      C1636   1.476       .  S
C1622      C3554   1.492       .  S
C1622      N1626   1.347       .  A
C1623      C1642   1.460       .  S
C1623      H1627   1.081       .  S
N1624      C1635   1.333       .  A
N1624     Co1634   2.079       .  S
C1628      C1640   1.459       .  S
C1628      C4617   1.532       .  S
C1628      N1644   1.376       .  A
Co1630    Cl1641   2.430       .  S
N1631      C1642   1.372       .  A
C1632      C3564   1.489       .  S
Co1634    Cl1641   2.458       .  S
C1642      C5254   1.525       .  S
C1645      C1682   1.497       .  S
C1645      C4877   1.532       .  S
C1645      N1663   1.348       .  A
N1646      N1663   1.327       .  A
N1646      N1668   1.313       .  A
N1646     Co1683   2.072       .  S
C1647      C1685   1.440       .  S
C1647      N1672   1.330       .  A
C1647      H1692   1.081       .  S
H1648      C1689   1.081       .  S
C1649      C1653   1.463       .  S
C1649      N1673   1.343       .  A
C1649      H1678   1.082       .  S
Co1650     N1668   2.167       .  S
Co1650     N1658   2.073       .  S
Co1650     N1690   2.163       .  S
Co1650     N1666   2.084       .  S
Co1650    Cl1694   2.449       .  S
N1651      C1689   1.329       .  A
N1651      N1658   1.326       .  A
N1651     Co1652   2.046       .  S
Co1652     N1655   2.105       .  S
Co1652     N1672   2.050       .  S
Co1652     N1659   2.115       .  S
Co1652    Cl1694   2.455       .  S
C1653      C3557   1.496       .  S
C1653      N1691   1.358       .  A
N1654      N1661   1.315       .  A
N1654      N1684   1.317       .  A
N1654     Co1687   2.030       .  S
N1655      N1673   1.315       .  A
N1655      N1691   1.332       .  A
N1656      C1685   1.345       .  A
N1656      N1666   1.317       .  A
H1657      C1682   1.081       .  S
N1658      N1679   1.314       .  A
N1659      N1677   1.315       .  A
N1659      N1664   1.334       .  A
C1660      C1688   1.457       .  S
C1660      C3514   1.490       .  S
C1660      N1664   1.361       .  A
N1661      C1676   1.313       .  A
N1661     Co1683   2.032       .  S
C1662      C1665   1.494       .  S
C1662      N1690   1.366       .  A
C1662      H1696   1.081       .  S
C1665      C4454   1.521       .  S
C1665      N1686   1.346       .  A
N1666      N1672   1.327       .  A
N1667      C1693   1.318       .  A
N1667      N1669   1.314       .  A
N1667     Co1683   2.011       .  S
N1668      C1682   1.365       .  A
N1669      N1697   1.312       .  A
N1669     Co1687   2.039       .  S
H1670      C1693   1.078       .  S
H1671      C1688   1.082       .  S
N1673     Co1687   2.087       .  S
N1674      N1686   1.327       .  A
N1674      N1690   1.313       .  A
N1674     Co1683   2.072       .  S
C1675      C1689   1.438       .  S
C1675      C3474   1.424       .  S
C1675      N1679   1.343       .  A
C1676      C1695   1.432       .  S
C1676      H1680   1.076       .  S
N1677      C1688   1.336       .  A
N1677     Co1687   2.071       .  S
C1681      C1693   1.428       .  S
C1681      C3494   1.424       .  S
C1681      N1697   1.344       .  A
Co1683    Cl1694   2.424       .  S
N1684      C1695   1.345       .  A
C1685      C3484   1.438       .  S
Co1687    Cl1694   2.443       .  S
C1695      C3504   1.416       .  S
C1698      C1735   1.487       .  S
C1698      C5157   1.522       .  S
C1698      N1716   1.351       .  A
N1699      N1716   1.331       .  A
N1699      N1721   1.316       .  A
N1699     Co1736   2.092       .  S
C1700      C1738   1.436       .  S
C1700      N1725   1.329       .  A
C1700      H1745   1.081       .  S
H1701      C1742   1.081       .  S
C1702      C1706   1.461       .  S
C1702      N1726   1.339       .  A
C1702      H1731   1.082       .  S
Co1703     N1721   2.159       .  S
Co1703     N1711   2.078       .  S
Co1703     N1743   2.168       .  S
Co1703     N1719   2.077       .  S
Co1703    Cl1747   2.435       .  S
N1704      C1742   1.330       .  A
N1704      N1711   1.326       .  A
N1704     Co1705   2.050       .  S
Co1705     N1708   2.105       .  S
Co1705     N1725   2.043       .  S
Co1705     N1712   2.112       .  S
Co1705    Cl1747   2.464       .  S
C1706      C3517   1.491       .  S
C1706      N1744   1.358       .  A
N1707      N1714   1.317       .  A
N1707      N1737   1.313       .  A
N1707     Co1740   2.029       .  S
N1708      N1726   1.316       .  A
N1708      N1744   1.333       .  A
N1709      C1738   1.343       .  A
N1709      N1719   1.315       .  A
H1710      C1735   1.081       .  S
N1711      N1732   1.317       .  A
N1712      N1730   1.314       .  A
N1712      N1717   1.334       .  A
C1713      C1741   1.455       .  S
C1713      C3567   1.493       .  S
C1713      N1717   1.361       .  A
N1714      C1729   1.321       .  A
N1714     Co1736   2.019       .  S
C1715      C1718   1.493       .  S
C1715      N1743   1.365       .  A
C1715      H1749   1.081       .  S
C1718      C5057   1.518       .  S
C1718      N1739   1.345       .  A
N1719      N1725   1.326       .  A
N1720      C1746   1.327       .  A
N1720      N1722   1.314       .  A
N1720     Co1736   2.046       .  S
N1721      C1735   1.362       .  A
N1722      N1750   1.312       .  A
N1722     Co1740   2.040       .  S
H1723      C1746   1.079       .  S
H1724      C1741   1.081       .  S
N1726     Co1740   2.083       .  S
N1727      N1739   1.326       .  A
N1727      N1743   1.315       .  A
N1727     Co1736   2.064       .  S
C1728      C1742   1.441       .  S
C1728      C3444   1.435       .  S
C1728      N1732   1.343       .  A
C1729      C1748   1.433       .  S
C1729      H1733   1.080       .  S
N1730      C1741   1.335       .  A
N1730     Co1740   2.064       .  S
C1734      C1746   1.459       .  S
C1734      C3464   1.453       .  S
C1734      N1750   1.344       .  A
Co1736    Cl1747   2.453       .  S
N1737      C1748   1.337       .  A
C1738      C3687   1.425       .  S
Co1740    Cl1747   2.424       .  S
C1748      C3454   1.404       .  S
C1751      C1788   1.455       .  S
C1751      C3547   1.423       .  S
C1751      N1769   1.339       .  A
N1752      N1769   1.311       .  A
N1752      N1774   1.315       .  A
N1752     Co1789   2.040       .  S
C1753      C1791   1.473       .  S
C1753      N1778   1.351       .  A
C1753      H1798   1.081       .  S
H1754      C1795   1.081       .  S
C1755      C1759   1.448       .  S
C1755      N1779   1.332       .  A
C1755      H1784   1.081       .  S
Co1756     N1774   2.043       .  S
Co1756     N1764   2.068       .  S
Co1756     N1796   2.044       .  S
Co1756     N1772   2.079       .  S
Co1756    Cl1800   2.453       .  S
N1757      C1795   1.352       .  A
N1757      N1764   1.314       .  A
N1757     Co1758   2.107       .  S
Co1758     N1761   2.055       .  S
Co1758     N1778   2.106       .  S
Co1758     N1765   2.055       .  S
Co1758    Cl1800   2.441       .  S
C1759      C3414   1.436       .  S
C1759      N1797   1.336       .  A
N1760      N1767   1.312       .  A
N1760      N1790   1.340       .  A
N1760     Co1793   2.147       .  S
N1761      N1779   1.328       .  A
N1761      N1797   1.315       .  A
N1762      C1791   1.349       .  A
N1762      N1772   1.324       .  A
H1763      C1788   1.081       .  S
N1764      N1785   1.322       .  A
N1765      N1783   1.328       .  A
N1765      N1770   1.317       .  A
C1766      C1794   1.445       .  S
C1766      C3587   1.427       .  S
C1766      N1770   1.337       .  A
N1767      C1782   1.342       .  A
N1767     Co1789   2.068       .  S
C1768      C1771   1.457       .  S
C1768      N1796   1.333       .  A
C1768      H1802   1.075       .  S
C1771      C3507   1.448       .  S
C1771      N1792   1.340       .  A
N1772      N1778   1.315       .  A
N1773      C1799   1.343       .  A
N1773      N1775   1.313       .  A
N1773     Co1789   2.082       .  S
N1774      C1788   1.332       .  A
N1775      N1803   1.342       .  A
N1775     Co1793   2.155       .  S
H1776      C1799   1.082       .  S
H1777      C1794   1.082       .  S
N1779     Co1793   2.077       .  S
N1780      N1792   1.309       .  A
N1780      N1796   1.315       .  A
N1780     Co1789   2.039       .  S
C1781      C1795   1.474       .  S
C1781      C3434   1.486       .  S
C1781      N1785   1.347       .  A
C1782      C1801   1.455       .  S
C1782      H1786   1.081       .  S
N1783      C1794   1.327       .  A
N1783     Co1793   2.066       .  S
C1787      C1799   1.458       .  S
C1787      C4884   1.521       .  S
C1787      N1803   1.371       .  A
Co1789    Cl1800   2.434       .  S
N1790      C1801   1.367       .  A
C1791      C3424   1.490       .  S
Co1793    Cl1800   2.449       .  S
C1801      C5264   1.507       .  S
C1804      C1841   1.453       .  S
C1804      C3467   1.421       .  S
C1804      N1822   1.338       .  A
N1805      N1822   1.308       .  A
N1805      N1827   1.314       .  A
N1805     Co1842   2.032       .  S
C1806      C1844   1.473       .  S
C1806      N1831   1.352       .  A
C1806      H1851   1.081       .  S
H1807      C1848   1.081       .  S
C1808      C1812   1.446       .  S
C1808      N1832   1.333       .  A
C1808      H1837   1.081       .  S
Co1809     N1827   2.039       .  S
Co1809     N1817   2.068       .  S
Co1809     N1849   2.033       .  S
Co1809     N1825   2.066       .  S
Co1809    Cl1853   2.458       .  S
N1810      C1848   1.358       .  A
N1810      N1817   1.316       .  A
N1810     Co1811   2.136       .  S
Co1811     N1814   2.050       .  S
Co1811     N1831   2.101       .  S
Co1811     N1818   2.071       .  S
Co1811    Cl1853   2.438       .  S
C1812      C3384   1.429       .  S
C1812      N1850   1.334       .  A
N1813      N1820   1.314       .  A
N1813      N1843   1.342       .  A
N1813     Co1846   2.152       .  S
N1814      N1832   1.330       .  A
N1814      N1850   1.313       .  A
N1815      C1844   1.347       .  A
N1815      N1825   1.322       .  A
H1816      C1841   1.080       .  S
N1817      N1838   1.323       .  A
N1818      N1836   1.330       .  A
N1818      N1823   1.317       .  A
C1819      C1847   1.452       .  S
C1819      C3394   1.445       .  S
C1819      N1823   1.340       .  A
N1820      C1835   1.342       .  A
N1820     Co1842   2.082       .  S
C1821      C1824   1.455       .  S
C1821      N1849   1.331       .  A
C1821      H1855   1.080       .  S
C1824      C3537   1.434       .  S
C1824      N1845   1.341       .  A
N1825      N1831   1.312       .  A
N1826      C1852   1.338       .  A
N1826      N1828   1.310       .  A
N1826     Co1842   2.068       .  S
N1827      C1841   1.333       .  A
N1828      N1856   1.342       .  A
N1828     Co1846   2.154       .  S
H1829      C1852   1.077       .  S
H1830      C1847   1.081       .  S
N1832     Co1846   2.078       .  S
N1833      N1845   1.310       .  A
N1833      N1849   1.315       .  A
N1833     Co1842   2.045       .  S
C1834      C1848   1.483       .  S
C1834      C3407   1.500       .  S
C1834      N1838   1.347       .  A
C1835      C1854   1.461       .  S
C1835      H1839   1.082       .  S
N1836      C1847   1.333       .  A
N1836     Co1846   2.085       .  S
C1840      C1852   1.461       .  S
C1840      C4627   1.528       .  S
C1840      N1856   1.375       .  A
Co1842    Cl1853   2.420       .  S
N1843      C1854   1.371       .  A
C1844      C3437   1.486       .  S
Co1846    Cl1853   2.466       .  S
C1854      C5067   1.522       .  S
C1857      C1894   1.493       .  S
C1857      C5164   1.524       .  S
C1857      N1875   1.348       .  A
N1858      N1875   1.328       .  A
N1858      N1880   1.315       .  A
N1858     Co1895   2.077       .  S
C1859      C1897   1.441       .  S
C1859      N1884   1.331       .  A
C1859      H1904   1.081       .  S
H1860      C1901   1.081       .  S
C1861      C1865   1.460       .  S
C1861      N1885   1.339       .  A
C1861      H1890   1.082       .  S
Co1862     N1880   2.168       .  S
Co1862     N1870   2.088       .  S
Co1862     N1902   2.184       .  S
Co1862     N1878   2.079       .  S
Co1862    Cl1906   2.438       .  S
N1863      C1901   1.327       .  A
N1863      N1870   1.327       .  A
N1863     Co1864   2.043       .  S
Co1864     N1867   2.131       .  S
Co1864     N1884   2.061       .  S
Co1864     N1871   2.109       .  S
Co1864    Cl1906   2.467       .  S
C1865      C3404   1.505       .  S
C1865      N1903   1.364       .  A
N1866      N1873   1.316       .  A
N1866      N1896   1.313       .  A
N1866     Co1899   2.038       .  S
N1867      N1885   1.315       .  A
N1867      N1903   1.336       .  A
N1868      C1897   1.342       .  A
N1868      N1878   1.317       .  A
H1869      C1894   1.081       .  S
N1870      N1891   1.319       .  A
N1871      N1889   1.313       .  A
N1871      N1876   1.335       .  A
C1872      C1900   1.454       .  S
C1872      C3427   1.492       .  S
C1872      N1876   1.362       .  A
N1873      C1888   1.321       .  A
N1873     Co1895   2.016       .  S
C1874      C1877   1.503       .  S
C1874      N1902   1.369       .  A
C1874      H1908   1.081       .  S
C1877      C4464   1.535       .  S
C1877      N1898   1.348       .  A
N1878      N1884   1.328       .  A
N1879      C1905   1.324       .  A
N1879      N1881   1.316       .  A
N1879     Co1895   2.038       .  S
N1880      C1894   1.365       .  A
N1881      N1909   1.310       .  A
N1881     Co1899   2.011       .  S
H1882      C1905   1.080       .  S
H1883      C1900   1.082       .  S
N1885     Co1899   2.071       .  S
N1886      N1898   1.326       .  A
N1886      N1902   1.313       .  A
N1886     Co1895   2.061       .  S
C1887      C1901   1.437       .  S
C1887      C3374   1.439       .  S
C1887      N1891   1.346       .  A
C1888      C1907   1.430       .  S
C1888      H1892   1.079       .  S
N1889      C1900   1.336       .  A
N1889     Co1899   2.071       .  S
C1893      C1905   1.446       .  S
C1893      C3497   1.405       .  S
C1893      N1909   1.333       .  A
Co1895    Cl1906   2.448       .  S
N1896      C1907   1.343       .  A
C1897      C3577   1.434       .  S
Co1899    Cl1906   2.424       .  S
C1907      C3457   1.420       .  S
C1910      C1947   1.478       .  S
C1910      C5237   1.505       .  S
C1910      N1928   1.349       .  A
N1911      N1928   1.329       .  A
N1911      N1933   1.315       .  A
N1911     Co1948   2.088       .  S
C1912      C1950   1.458       .  S
C1912      N1937   1.338       .  A
C1912      H1957   1.081       .  S
H1913      C1954   1.081       .  S
C1914      C1918   1.458       .  S
C1914      N1938   1.340       .  A
C1914      H1943   1.081       .  S
Co1915     N1933   2.133       .  S
Co1915     N1923   2.084       .  S
Co1915     N1955   2.162       .  S
Co1915     N1931   2.059       .  S
Co1915    Cl1959   2.431       .  S
N1916      C1954   1.330       .  A
N1916      N1923   1.326       .  A
N1916     Co1917   2.054       .  S
Co1917     N1920   2.124       .  S
Co1917     N1937   2.069       .  S
Co1917     N1924   2.113       .  S
Co1917    Cl1959   2.476       .  S
C1918      C3354   1.499       .  S
C1918      N1956   1.361       .  A
N1919      N1926   1.315       .  A
N1919      N1949   1.318       .  A
N1919     Co1952   2.050       .  S
N1920      N1938   1.316       .  A
N1920      N1956   1.335       .  A
N1921      C1950   1.337       .  A
N1921      N1931   1.310       .  A
H1922      C1947   1.081       .  S
N1923      N1944   1.318       .  A
N1924      N1942   1.315       .  A
N1924      N1929   1.335       .  A
C1925      C1953   1.456       .  S
C1925      C3364   1.494       .  S
C1925      N1929   1.362       .  A
N1926      C1941   1.321       .  A
N1926     Co1948   2.029       .  S
C1927      C1930   1.486       .  S
C1927      N1955   1.361       .  A
C1927      H1961   1.074       .  S
C1930      C4577   1.520       .  S
C1930      N1951   1.349       .  A
N1931      N1937   1.324       .  A
N1932      C1958   1.326       .  A
N1932      N1934   1.314       .  A
N1932     Co1948   2.039       .  S
N1933      C1947   1.355       .  A
N1934      N1962   1.315       .  A
N1934     Co1952   2.041       .  S
H1935      C1958   1.077       .  S
H1936      C1953   1.082       .  S
N1938     Co1952   2.076       .  S
N1939      N1951   1.329       .  A
N1939      N1955   1.316       .  A
N1939     Co1948   2.081       .  S
C1940      C1954   1.444       .  S
C1940      C3324   1.446       .  S
C1940      N1944   1.346       .  A
C1941      C1960   1.448       .  S
C1941      H1945   1.077       .  S
N1942      C1953   1.336       .  A
N1942     Co1952   2.074       .  S
C1946      C1958   1.453       .  S
C1946      C3347   1.444       .  S
C1946      N1962   1.346       .  A
Co1948    Cl1959   2.466       .  S
N1949      C1960   1.346       .  A
C1950      C3847   1.456       .  S
Co1952    Cl1959   2.421       .  S
C1960      C3337   1.446       .  S
C1963      C2000   1.442       .  S
C1963      C3297   1.399       .  S
C1963      N1981   1.331       .  A
N1964      N1981   1.304       .  A
N1964      N1986   1.314       .  A
N1964     Co2001   2.005       .  S
C1965      C2003   1.482       .  S
C1965      N1990   1.357       .  A
C1965      H2010   1.081       .  S
H1966      C2007   1.081       .  S
C1967      C1971   1.453       .  S
C1967      N1991   1.334       .  A
C1967      H1996   1.081       .  S
Co1968     N1986   2.022       .  S
Co1968     N1976   2.068       .  S
Co1968     N2008   2.026       .  S
Co1968     N1984   2.054       .  S
Co1968    Cl2012   2.447       .  S
N1969      C2007   1.354       .  A
N1969      N1976   1.315       .  A
N1969     Co1970   2.119       .  S
Co1970     N1973   2.056       .  S
Co1970     N1990   2.125       .  S
Co1970     N1977   2.054       .  S
Co1970    Cl2012   2.445       .  S
C1971      C3447   1.442       .  S
C1971      N2009   1.339       .  A
N1972      N1979   1.314       .  A
N1972      N2002   1.339       .  A
N1972     Co2005   2.142       .  S
N1973      N1991   1.327       .  A
N1973      N2009   1.316       .  A
N1974      C2003   1.343       .  A
N1974      N1984   1.319       .  A
H1975      C2000   1.081       .  S
N1976      N1997   1.321       .  A
N1977      N1995   1.328       .  A
N1977      N1982   1.315       .  A
C1978      C2006   1.449       .  S
C1978      C3897   1.429       .  S
C1978      N1982   1.337       .  A
N1979      C1994   1.349       .  A
N1979     Co2001   2.100       .  S
C1980      C1983   1.455       .  S
C1980      N2008   1.331       .  A
C1980      H2014   1.081       .  S
C1983      C3284   1.432       .  S
C1983      N2004   1.341       .  A
N1984      N1990   1.314       .  A
N1985      C2011   1.331       .  A
N1985      N1987   1.309       .  A
N1985     Co2001   2.044       .  S
N1986      C2000   1.328       .  A
N1987      N2015   1.347       .  A
N1987     Co2005   2.184       .  S
H1988      C2011   1.072       .  S
H1989      C2006   1.082       .  S
N1991     Co2005   2.085       .  S
N1992      N2004   1.310       .  A
N1992      N2008   1.313       .  A
N1992     Co2001   2.049       .  S
C1993      C2007   1.478       .  S
C1993      C3314   1.491       .  S
C1993      N1997   1.347       .  A
C1994      C2013   1.465       .  S
C1994      H1998   1.081       .  S
N1995      C2006   1.325       .  A
N1995     Co2005   2.064       .  S
C1999      C2011   1.454       .  S
C1999      C3304   1.537       .  S
C1999      N2015   1.383       .  A
Co2001    Cl2012   2.412       .  S
N2002      C2013   1.366       .  A
C2003      C3367   1.492       .  S
Co2005    Cl2012   2.461       .  S
C2013      C5137   1.518       .  S
C2016      C2053   1.461       .  S
C2016      C3274   1.447       .  S
C2016      N2034   1.341       .  A
N2017      N2034   1.311       .  A
N2017      N2039   1.314       .  A
N2017     Co2054   2.037       .  S
C2018      C2056   1.471       .  S
C2018      N2043   1.351       .  A
C2018      H2063   1.081       .  S
H2019      C2060   1.081       .  S
C2020      C2024   1.449       .  S
C2020      N2044   1.332       .  A
C2020      H2049   1.081       .  S
Co2021     N2039   2.044       .  S
Co2021     N2029   2.062       .  S
Co2021     N2061   2.025       .  S
Co2021     N2037   2.084       .  S
Co2021    Cl2065   2.444       .  S
N2022      C2060   1.358       .  A
N2022      N2029   1.315       .  A
N2022     Co2023   2.132       .  S
Co2023     N2026   2.049       .  S
Co2023     N2043   2.102       .  S
Co2023     N2030   2.061       .  S
Co2023    Cl2065   2.450       .  S
C2024      C3254   1.434       .  S
C2024      N2062   1.334       .  A
N2025      N2032   1.314       .  A
N2025      N2055   1.343       .  A
N2025     Co2058   2.159       .  S
N2026      N2044   1.328       .  A
N2026      N2062   1.315       .  A
N2027      C2056   1.351       .  A
N2027      N2037   1.324       .  A
H2028      C2053   1.079       .  S
N2029      N2050   1.321       .  A
N2030      N2048   1.326       .  A
N2030      N2035   1.317       .  A
C2031      C2059   1.451       .  S
C2031      C3487   1.443       .  S
C2031      N2035   1.341       .  A
N2032      C2047   1.339       .  A
N2032     Co2054   2.074       .  S
C2033      C2036   1.446       .  S
C2033      N2061   1.330       .  A
C2033      H2067   1.081       .  S
C2036      C3267   1.410       .  S
C2036      N2057   1.335       .  A
N2037      N2043   1.315       .  A
N2038      C2064   1.344       .  A
N2038      N2040   1.314       .  A
N2038     Co2054   2.078       .  S
N2039      C2053   1.328       .  A
N2040      N2068   1.341       .  A
N2040     Co2058   2.159       .  S
H2041      C2064   1.081       .  S
H2042      C2059   1.080       .  S
N2044     Co2058   2.077       .  S
N2045      N2057   1.305       .  A
N2045      N2061   1.315       .  A
N2045     Co2054   2.026       .  S
C2046      C2060   1.483       .  S
C2046      C3357   1.498       .  S
C2046      N2050   1.345       .  A
C2047      C2066   1.453       .  S
C2047      H2051   1.077       .  S
N2048      C2059   1.331       .  A
N2048     Co2058   2.074       .  S
C2052      C2064   1.457       .  S
C2052      C4477   1.516       .  S
C2052      N2068   1.370       .  A
Co2054    Cl2065   2.426       .  S
N2055      C2066   1.372       .  A
C2056      C3317   1.491       .  S
Co2058    Cl2065   2.461       .  S
C2066      C4717   1.517       .  S
C2069      C2106   1.454       .  S
C2069      C3294   1.419       .  S
C2069      N2087   1.325       .  A
N2070      N2087   1.304       .  A
N2070      N2092   1.314       .  A
N2070     Co2107   2.008       .  S
C2071      C2109   1.478       .  S
C2071      N2096   1.354       .  A
C2071      H2116   1.081       .  S
H2072      C2113   1.081       .  S
C2073      C2077   1.456       .  S
C2073      N2097   1.334       .  A
C2073      H2102   1.080       .  S
Co2074     N2092   2.029       .  S
Co2074     N2082   2.100       .  S
Co2074     N2114   2.053       .  S
Co2074     N2090   2.066       .  S
Co2074    Cl2118   2.456       .  S
N2075      C2113   1.350       .  A
N2075      N2082   1.315       .  A
N2075     Co2076   2.099       .  S
Co2076     N2079   2.062       .  S
Co2076     N2096   2.124       .  S
Co2076     N2083   2.039       .  S
Co2076    Cl2118   2.435       .  S
C2077      C3227   1.447       .  S
C2077      N2115   1.340       .  A
N2078      N2085   1.309       .  A
N2078      N2108   1.342       .  A
N2078     Co2111   2.160       .  S
N2079      N2097   1.327       .  A
N2079      N2115   1.316       .  A
N2080      C2109   1.347       .  A
N2080      N2090   1.322       .  A
H2081      C2106   1.081       .  S
N2082      N2103   1.329       .  A
N2083      N2101   1.326       .  A
N2083      N2088   1.314       .  A
C2084      C2112   1.449       .  S
C2084      C3737   1.424       .  S
C2084      N2088   1.333       .  A
N2085      C2100   1.335       .  A
N2085     Co2107   2.054       .  S
C2086      C2089   1.469       .  S
C2086      N2114   1.331       .  A
C2086      H2120   1.081       .  S
C2089      C3264   1.449       .  S
C2089      N2110   1.335       .  A
N2090      N2096   1.316       .  A
N2091      C2117   1.331       .  A
N2091      N2093   1.312       .  A
N2091     Co2107   2.054       .  S
N2092      C2106   1.327       .  A
N2093      N2121   1.346       .  A
N2093     Co2111   2.171       .  S
H2094      C2117   1.077       .  S
H2095      C2112   1.082       .  S
N2097     Co2111   2.082       .  S
N2098      N2110   1.309       .  A
N2098      N2114   1.313       .  A
N2098     Co2107   2.021       .  S
C2099      C2113   1.471       .  S
C2099      C3244   1.501       .  S
C2099      N2103   1.355       .  A
C2100      C2119   1.455       .  S
C2100      H2104   1.075       .  S
N2101      C2112   1.327       .  A
N2101     Co2111   2.067       .  S
C2105      C2117   1.446       .  S
C2105      C4484   1.522       .  S
C2105      N2121   1.378       .  A
Co2107    Cl2118   2.407       .  S
N2108      C2119   1.376       .  A
C2109      C3234   1.491       .  S
Co2111    Cl2118   2.470       .  S
C2119      C5147   1.525       .  S
C2122      C2159   1.486       .  S
C2122      C5247   1.522       .  S
C2122      N2140   1.353       .  A
N2123      N2140   1.330       .  A
N2123      N2145   1.314       .  A
N2123     Co2160   2.093       .  S
C2124      C2162   1.437       .  S
C2124      N2149   1.330       .  A
C2124      H2169   1.081       .  S
H2125      C2166   1.081       .  S
C2126      C2130   1.456       .  S
C2126      N2150   1.336       .  A
C2126      H2155   1.082       .  S
Co2127     N2145   2.145       .  S
Co2127     N2135   2.082       .  S
Co2127     N2167   2.163       .  S
Co2127     N2143   2.076       .  S
Co2127    Cl2171   2.448       .  S
N2128      C2166   1.329       .  A
N2128      N2135   1.326       .  A
N2128     Co2129   2.050       .  S
Co2129     N2132   2.112       .  S
Co2129     N2149   2.049       .  S
Co2129     N2136   2.115       .  S
Co2129    Cl2171   2.461       .  S
C2130      C3217   1.489       .  S
C2130      N2168   1.360       .  A
N2131      N2138   1.316       .  A
N2131      N2161   1.316       .  A
N2131     Co2164   2.036       .  S
N2132      N2150   1.314       .  A
N2132      N2168   1.334       .  A
N2133      C2162   1.342       .  A
N2133      N2143   1.316       .  A
H2134      C2159   1.081       .  S
N2135      N2156   1.318       .  A
N2136      N2154   1.315       .  A
N2136      N2141   1.334       .  A
C2137      C2165   1.458       .  S
C2137      C3237   1.492       .  S
C2137      N2141   1.361       .  A
N2138      C2153   1.322       .  A
N2138     Co2160   2.036       .  S
C2139      C2142   1.493       .  S
C2139      N2167   1.364       .  A
C2139      H2173   1.081       .  S
C2142      C4727   1.525       .  S
C2142      N2163   1.349       .  A
N2143      N2149   1.327       .  A
N2144      C2170   1.321       .  A
N2144      N2146   1.316       .  A
N2144     Co2160   2.039       .  S
N2145      C2159   1.360       .  A
N2146      N2174   1.316       .  A
N2146     Co2164   2.031       .  S
H2147      C2170   1.080       .  S
H2148      C2165   1.082       .  S
N2150     Co2164   2.066       .  S
N2151      N2163   1.329       .  A
N2151      N2167   1.316       .  A
N2151     Co2160   2.086       .  S
C2152      C2166   1.440       .  S
C2152      C3417   1.435       .  S
C2152      N2156   1.345       .  A
C2153      C2172   1.443       .  S
C2153      H2157   1.080       .  S
N2154      C2165   1.338       .  A
N2154     Co2164   2.074       .  S
C2158      C2170   1.441       .  S
C2158      C3277   1.420       .  S
C2158      N2174   1.342       .  A
Co2160    Cl2171   2.438       .  S
N2161      C2172   1.342       .  A
C2162      C3747   1.425       .  S
Co2164    Cl2171   2.436       .  S
C2172      C3334   1.421       .  S
C2175      C2212   1.457       .  S
C2175      C3344   1.428       .  S
C2175      N2193   1.334       .  A
N2176      N2193   1.304       .  A
N2176      N2198   1.313       .  A
N2176     Co2213   2.022       .  S
C2177      C2215   1.484       .  S
C2177      N2202   1.359       .  A
C2177      H2222   1.081       .  S
H2178      C2219   1.081       .  S
C2179      C2183   1.449       .  S
C2179      N2203   1.331       .  A
C2179      H2208   1.081       .  S
Co2180     N2198   2.042       .  S
Co2180     N2188   2.067       .  S
Co2180     N2220   2.034       .  S
Co2180     N2196   2.072       .  S
Co2180    Cl2224   2.443       .  S
N2181      C2219   1.351       .  A
N2181      N2188   1.315       .  A
N2181     Co2182   2.107       .  S
Co2182     N2185   2.065       .  S
Co2182     N2202   2.131       .  S
Co2182     N2189   2.049       .  S
Co2182    Cl2224   2.450       .  S
C2183      C3397   1.444       .  S
C2183      N2221   1.339       .  A
N2184      N2191   1.313       .  A
N2184      N2214   1.341       .  A
N2184     Co2217   2.153       .  S
N2185      N2203   1.328       .  A
N2185      N2221   1.318       .  A
N2186      C2215   1.345       .  A
N2186      N2196   1.322       .  A
H2187      C2212   1.082       .  S
N2188      N2209   1.322       .  A
N2189      N2207   1.327       .  A
N2189      N2194   1.315       .  A
C2190      C2218   1.446       .  S
C2190      C3194   1.425       .  S
C2190      N2194   1.336       .  A
N2191      C2206   1.343       .  A
N2191     Co2213   2.072       .  S
C2192      C2195   1.449       .  S
C2192      N2220   1.328       .  A
C2192      H2226   1.075       .  S
C2195      C3287   1.439       .  S
C2195      N2216   1.343       .  A
N2196      N2202   1.315       .  A
N2197      C2223   1.337       .  A
N2197      N2199   1.312       .  A
N2197     Co2213   2.071       .  S
N2198      C2212   1.335       .  A
N2199      N2227   1.344       .  A
N2199     Co2217   2.163       .  S
H2200      C2223   1.080       .  S
H2201      C2218   1.082       .  S
N2203     Co2217   2.076       .  S
N2204      N2216   1.310       .  A
N2204      N2220   1.312       .  A
N2204     Co2213   2.034       .  S
C2205      C2219   1.474       .  S
C2205      C3214   1.488       .  S
C2205      N2209   1.348       .  A
C2206      C2225   1.453       .  S
C2206      H2210   1.081       .  S
N2207      C2218   1.327       .  A
N2207     Co2217   2.063       .  S
C2211      C2223   1.465       .  S
C2211      C3204   1.536       .  S
C2211      N2227   1.376       .  A
Co2213    Cl2224   2.423       .  S
N2214      C2225   1.369       .  A
C2215      C3247   1.500       .  S
Co2217    Cl2224   2.455       .  S
C2225      C4584   1.510       .  S
C2228      C2265   1.482       .  S
C2228      C5277   1.515       .  S
C2228      N2246   1.353       .  A
N2229      N2246   1.331       .  A
N2229      N2251   1.312       .  A
N2229     Co2266   2.090       .  S
C2230      C2268   1.440       .  S
C2230      N2255   1.331       .  A
C2230      H2275   1.082       .  S
H2231      C2272   1.081       .  S
C2232      C2236   1.458       .  S
C2232      N2256   1.339       .  A
C2232      H2261   1.082       .  S
Co2233     N2251   2.138       .  S
Co2233     N2241   2.078       .  S
Co2233     N2273   2.166       .  S
Co2233     N2249   2.065       .  S
Co2233    Cl2277   2.423       .  S
N2234      C2272   1.331       .  A
N2234      N2241   1.327       .  A
N2234     Co2235   2.053       .  S
Co2235     N2238   2.108       .  S
Co2235     N2255   2.052       .  S
Co2235     N2242   2.113       .  S
Co2235    Cl2277   2.466       .  S
C2236      C3187   1.496       .  S
C2236      N2274   1.360       .  A
N2237      N2244   1.318       .  A
N2237      N2267   1.312       .  A
N2237     Co2270   2.028       .  S
N2238      N2256   1.313       .  A
N2238      N2274   1.334       .  A
N2239      C2268   1.338       .  A
N2239      N2249   1.311       .  A
H2240      C2265   1.081       .  S
N2241      N2262   1.314       .  A
N2242      N2260   1.312       .  A
N2242      N2247   1.335       .  A
C2243      C2271   1.455       .  S
C2243      C3174   1.493       .  S
C2243      N2247   1.363       .  A
N2244      C2259   1.320       .  A
N2244     Co2266   2.022       .  S
C2245      C2248   1.494       .  S
C2245      N2273   1.365       .  A
C2245      H2279   1.081       .  S
C2248      C5014   1.518       .  S
C2248      N2269   1.345       .  A
N2249      N2255   1.328       .  A
N2250      C2276   1.323       .  A
N2250      N2252   1.315       .  A
N2250     Co2266   2.041       .  S
N2251      C2265   1.359       .  A
N2252      N2280   1.315       .  A
N2252     Co2270   2.039       .  S
H2253      C2276   1.081       .  S
H2254      C2271   1.082       .  S
N2256     Co2270   2.078       .  S
N2257      N2269   1.326       .  A
N2257      N2273   1.313       .  A
N2257     Co2266   2.063       .  S
C2258      C2272   1.441       .  S
C2258      C3527   1.423       .  S
C2258      N2262   1.343       .  A
C2259      C2278   1.435       .  S
C2259      H2263   1.080       .  S
N2260      C2271   1.334       .  A
N2260     Co2270   2.058       .  S
C2264      C2276   1.448       .  S
C2264      C3164   1.438       .  S
C2264      N2280   1.342       .  A
Co2266    Cl2277   2.456       .  S
N2267      C2278   1.335       .  A
C2268      C4067   1.426       .  S
Co2270    Cl2277   2.421       .  S
C2278      C3157   1.401       .  S
C2281      C2318   1.497       .  S
C2281      C4957   1.517       .  S
C2281      N2299   1.343       .  A
N2282      N2299   1.321       .  A
N2282      N2304   1.310       .  A
N2282     Co2319   2.046       .  S
C2283      C2321   1.438       .  S
C2283      N2308   1.330       .  A
C2283      H2328   1.081       .  S
H2284      C2325   1.081       .  S
C2285      C2289   1.458       .  S
C2285      N2309   1.338       .  A
C2285      H2314   1.082       .  S
Co2286     N2304   2.160       .  S
Co2286     N2294   2.078       .  S
Co2286     N2326   2.162       .  S
Co2286     N2302   2.073       .  S
Co2286    Cl2330   2.438       .  S
N2287      C2325   1.331       .  A
N2287      N2294   1.329       .  A
N2287     Co2288   2.057       .  S
Co2288     N2291   2.101       .  S
Co2288     N2308   2.047       .  S
Co2288     N2295   2.107       .  S
Co2288    Cl2330   2.450       .  S
C2289      C3144   1.485       .  S
C2289      N2327   1.358       .  A
N2290      N2297   1.317       .  A
N2290      N2320   1.319       .  A
N2290     Co2323   2.053       .  S
N2291      N2309   1.314       .  A
N2291      N2327   1.331       .  A
N2292      C2321   1.342       .  A
N2292      N2302   1.313       .  A
H2293      C2318   1.081       .  S
N2294      N2315   1.316       .  A
N2295      N2313   1.315       .  A
N2295      N2300   1.333       .  A
C2296      C2324   1.464       .  S
C2296      C3184   1.498       .  S
C2296      N2300   1.359       .  A
N2297      C2312   1.322       .  A
N2297     Co2319   2.044       .  S
C2298      C2301   1.493       .  S
C2298      N2326   1.365       .  A
C2298      H2332   1.081       .  S
C2301      C4857   1.522       .  S
C2301      N2322   1.347       .  A
N2302      N2308   1.326       .  A
N2303      C2329   1.319       .  A
N2303      N2305   1.316       .  A
N2303     Co2319   2.014       .  S
N2304      C2318   1.366       .  A
N2305      N2333   1.313       .  A
N2305     Co2323   2.039       .  S
H2306      C2329   1.078       .  S
H2307      C2324   1.081       .  S
N2309     Co2323   2.071       .  S
N2310      N2322   1.328       .  A
N2310      N2326   1.312       .  A
N2310     Co2319   2.077       .  S
C2311      C2325   1.439       .  S
C2311      C3114   1.425       .  S
C2311      N2315   1.341       .  A
C2312      C2331   1.443       .  S
C2312      H2316   1.080       .  S
N2313      C2324   1.340       .  A
N2313     Co2323   2.088       .  S
C2317      C2329   1.425       .  S
C2317      C3137   1.416       .  S
C2317      N2333   1.342       .  A
Co2319    Cl2330   2.439       .  S
N2320      C2331   1.350       .  A
C2321      C3477   1.423       .  S
Co2323    Cl2330   2.442       .  S
C2331      C3124   1.435       .  S
C2334      C2371   1.454       .  S
C2334      C3104   1.426       .  S
C2334      N2352   1.327       .  A
N2335      N2352   1.307       .  A
N2335      N2357   1.316       .  A
N2335     Co2372   2.007       .  S
C2336      C2374   1.476       .  S
C2336      N2361   1.353       .  A
C2336      H2381   1.081       .  S
H2337      C2378   1.082       .  S
C2338      C2342   1.450       .  S
C2338      N2362   1.333       .  A
C2338      H2367   1.081       .  S
Co2339     N2357   2.044       .  S
Co2339     N2347   2.081       .  S
Co2339     N2379   2.041       .  S
Co2339     N2355   2.068       .  S
Co2339    Cl2383   2.433       .  S
N2340      C2378   1.350       .  A
N2340      N2347   1.315       .  A
N2340     Co2341   2.100       .  S
Co2341     N2344   2.047       .  S
Co2341     N2361   2.111       .  S
Co2341     N2348   2.044       .  S
Co2341    Cl2383   2.447       .  S
C2342      C3084   1.436       .  S
C2342      N2380   1.335       .  A
N2343      N2350   1.315       .  A
N2343      N2373   1.340       .  A
N2343     Co2376   2.146       .  S
N2344      N2362   1.326       .  A
N2344      N2380   1.315       .  A
N2345      C2374   1.346       .  A
N2345      N2355   1.322       .  A
H2346      C2371   1.081       .  S
N2347      N2368   1.324       .  A
N2348      N2366   1.327       .  A
N2348      N2353   1.316       .  A
C2349      C2377   1.447       .  S
C2349      C4104   1.423       .  S
C2349      N2353   1.334       .  A
N2350      C2365   1.345       .  A
N2350     Co2372   2.087       .  S
C2351      C2354   1.462       .  S
C2351      N2379   1.327       .  A
C2351      H2385   1.080       .  S
C2354      C3094   1.453       .  S
C2354      N2375   1.344       .  A
N2355      N2361   1.314       .  A
N2356      C2382   1.336       .  A
N2356      N2358   1.314       .  A
N2356     Co2372   2.052       .  S
N2357      C2371   1.329       .  A
N2358      N2386   1.343       .  A
N2358     Co2376   2.164       .  S
H2359      C2382   1.080       .  S
H2360      C2377   1.082       .  S
N2362     Co2376   2.075       .  S
N2363      N2375   1.311       .  A
N2363      N2379   1.312       .  A
N2363     Co2372   2.039       .  S
C2364      C2378   1.469       .  S
C2364      C3147   1.488       .  S
C2364      N2368   1.350       .  A
C2365      C2384   1.458       .  S
C2365      H2369   1.081       .  S
N2366      C2377   1.327       .  A
N2366     Co2376   2.068       .  S
C2370      C2382   1.446       .  S
C2370      C5117   1.509       .  S
C2370      N2386   1.372       .  A
Co2372    Cl2383   2.435       .  S
N2373      C2384   1.367       .  A
C2374      C3177   1.491       .  S
Co2376    Cl2383   2.452       .  S
C2384      C5174   1.514       .  S
C2387      C2424   1.480       .  S
C2387      C5127   1.514       .  S
C2387      N2405   1.354       .  A
N2388      N2405   1.331       .  A
N2388      N2410   1.315       .  A
N2388     Co2425   2.095       .  S
C2389      C2427   1.439       .  S
C2389      N2414   1.328       .  A
C2389      H2434   1.082       .  S
H2390      C2431   1.081       .  S
C2391      C2395   1.451       .  S
C2391      N2415   1.333       .  A
C2391      H2420   1.082       .  S
Co2392     N2410   2.140       .  S
Co2392     N2400   2.084       .  S
Co2392     N2432   2.166       .  S
Co2392     N2408   2.074       .  S
Co2392    Cl2436   2.439       .  S
N2393      C2431   1.329       .  A
N2393      N2400   1.326       .  A
N2393     Co2394   2.042       .  S
Co2394     N2397   2.118       .  S
Co2394     N2414   2.051       .  S
Co2394     N2401   2.112       .  S
Co2394    Cl2436   2.467       .  S
C2395      C3077   1.490       .  S
C2395      N2433   1.362       .  A
N2396      N2403   1.315       .  A
N2396      N2426   1.317       .  A
N2396     Co2429   2.034       .  S
N2397      N2415   1.313       .  A
N2397      N2433   1.335       .  A
N2398      C2427   1.342       .  A
N2398      N2408   1.318       .  A
H2399      C2424   1.081       .  S
N2400      N2421   1.317       .  A
N2401      N2419   1.314       .  A
N2401      N2406   1.333       .  A
C2402      C2430   1.456       .  S
C2402      C3067   1.487       .  S
C2402      N2406   1.361       .  A
N2403      C2418   1.322       .  A
N2403     Co2425   2.032       .  S
C2404      C2407   1.499       .  S
C2404      N2432   1.367       .  A
C2404      H2438   1.081       .  S
C2407      C5027   1.530       .  S
C2407      N2428   1.344       .  A
N2408      N2414   1.327       .  A
N2409      C2435   1.326       .  A
N2409      N2411   1.314       .  A
N2409     Co2425   2.050       .  S
N2410      C2424   1.357       .  A
N2411      N2439   1.315       .  A
N2411     Co2429   2.028       .  S
H2412      C2435   1.077       .  S
H2413      C2430   1.082       .  S
N2415     Co2429   2.059       .  S
N2416      N2428   1.323       .  A
N2416      N2432   1.315       .  A
N2416     Co2425   2.074       .  S
C2417      C2431   1.439       .  S
C2417      C3387   1.430       .  S
C2417      N2421   1.345       .  A
C2418      C2437   1.446       .  S
C2418      H2422   1.080       .  S
N2419      C2430   1.336       .  A
N2419     Co2429   2.065       .  S
C2423      C2435   1.451       .  S
C2423      C3167   1.436       .  S
C2423      N2439   1.344       .  A
Co2425    Cl2436   2.451       .  S
N2426      C2437   1.339       .  A
C2427      C3057   1.432       .  S
Co2429    Cl2436   2.421       .  S
C2437      C3097   1.425       .  S
C2440      C2477   1.443       .  S
C2440      C3107   1.403       .  S
C2440      N2458   1.329       .  A
N2441      N2458   1.306       .  A
N2441      N2463   1.317       .  A
N2441     Co2478   2.015       .  S
C2442      C2480   1.481       .  S
C2442      N2467   1.356       .  A
C2442      H2487   1.081       .  S
H2443      C2484   1.081       .  S
C2444      C2448   1.455       .  S
C2444      N2468   1.333       .  A
C2444      H2473   1.080       .  S
Co2445     N2463   2.032       .  S
Co2445     N2453   2.091       .  S
Co2445     N2485   2.046       .  S
Co2445     N2461   2.064       .  S
Co2445    Cl2489   2.450       .  S
N2446      C2484   1.347       .  A
N2446      N2453   1.315       .  A
N2446     Co2447   2.093       .  S
Co2447     N2450   2.058       .  S
Co2447     N2467   2.122       .  S
Co2447     N2454   2.056       .  S
Co2447    Cl2489   2.444       .  S
C2448      C3377   1.446       .  S
C2448      N2486   1.342       .  A
N2449      N2456   1.314       .  A
N2449      N2479   1.340       .  A
N2449     Co2482   2.142       .  S
N2450      N2468   1.324       .  A
N2450      N2486   1.316       .  A
N2451      C2480   1.342       .  A
N2451      N2461   1.320       .  A
H2452      C2477   1.081       .  S
N2453      N2474   1.326       .  A
N2454      N2472   1.328       .  A
N2454      N2459   1.318       .  A
C2455      C2483   1.445       .  S
C2455      C3957   1.429       .  S
C2455      N2459   1.337       .  A
N2456      C2471   1.346       .  A
N2456     Co2478   2.100       .  S
C2457      C2460   1.459       .  S
C2457      N2485   1.333       .  A
C2457      H2491   1.076       .  S
C2460      C3127   1.456       .  S
C2460      N2481   1.347       .  A
N2461      N2467   1.316       .  A
N2462      C2488   1.338       .  A
N2462      N2464   1.314       .  A
N2462     Co2478   2.058       .  S
N2463      C2477   1.330       .  A
N2464      N2492   1.342       .  A
N2464     Co2482   2.163       .  S
H2465      C2488   1.082       .  S
H2466      C2483   1.082       .  S
N2468     Co2482   2.072       .  S
N2469      N2481   1.311       .  A
N2469      N2485   1.314       .  A
N2469     Co2478   2.048       .  S
C2470      C2484   1.467       .  S
C2470      C3074   1.490       .  S
C2470      N2474   1.353       .  A
C2471      C2490   1.468       .  S
C2471      H2475   1.080       .  S
N2472      C2483   1.329       .  A
N2472     Co2482   2.069       .  S
C2476      C2488   1.447       .  S
C2476      C4967   1.508       .  S
C2476      N2492   1.372       .  A
Co2478    Cl2489   2.425       .  S
N2479      C2490   1.367       .  A
C2480      C3044   1.490       .  S
Co2482    Cl2489   2.464       .  S
C2490      C5187   1.526       .  S
C2493      C2530   1.488       .  S
C2493      C5287   1.513       .  S
C2493      N2511   1.345       .  A
N2494      N2511   1.327       .  A
N2494      N2516   1.313       .  A
N2494     Co2531   2.070       .  S
C2495      C2533   1.439       .  S
C2495      N2520   1.330       .  A
C2495      H2540   1.081       .  S
H2496      C2537   1.081       .  S
C2497      C2501   1.458       .  S
C2497      N2521   1.339       .  A
C2497      H2526   1.082       .  S
Co2498     N2516   2.154       .  S
Co2498     N2506   2.079       .  S
Co2498     N2538   2.164       .  S
Co2498     N2514   2.067       .  S
Co2498    Cl2542   2.436       .  S
N2499      C2537   1.327       .  A
N2499      N2506   1.326       .  A
N2499     Co2500   2.035       .  S
Co2500     N2503   2.108       .  S
Co2500     N2520   2.041       .  S
Co2500     N2507   2.100       .  S
Co2500    Cl2542   2.460       .  S
C2501      C3064   1.486       .  S
C2501      N2539   1.358       .  A
N2502      N2509   1.315       .  A
N2502      N2532   1.312       .  A
N2502     Co2535   2.042       .  S
N2503      N2521   1.315       .  A
N2503      N2539   1.332       .  A
N2504      C2533   1.342       .  A
N2504      N2514   1.312       .  A
H2505      C2530   1.081       .  S
N2506      N2527   1.316       .  A
N2507      N2525   1.315       .  A
N2507      N2512   1.332       .  A
C2508      C2536   1.461       .  S
C2508      C3047   1.491       .  S
C2508      N2512   1.357       .  A
N2509      C2524   1.321       .  A
N2509     Co2531   2.017       .  S
C2510      C2513   1.498       .  S
C2510      N2538   1.365       .  A
C2510      H2544   1.081       .  S
C2513      C4867   1.528       .  S
C2513      N2534   1.348       .  A
N2514      N2520   1.325       .  A
N2515      C2541   1.323       .  A
N2515      N2517   1.317       .  A
N2515     Co2531   2.030       .  S
N2516      C2530   1.362       .  A
N2517      N2545   1.311       .  A
N2517     Co2535   2.019       .  S
H2518      C2541   1.080       .  S
H2519      C2536   1.082       .  S
N2521     Co2535   2.072       .  S
N2522      N2534   1.325       .  A
N2522      N2538   1.313       .  A
N2522     Co2531   2.069       .  S
C2523      C2537   1.432       .  S
C2523      C3034   1.419       .  S
C2523      N2527   1.344       .  A
C2524      C2543   1.429       .  S
C2524      H2528   1.078       .  S
N2525      C2536   1.341       .  A
N2525     Co2535   2.087       .  S
C2529      C2541   1.436       .  S
C2529      C3134   1.401       .  S
C2529      N2545   1.336       .  A
Co2531    Cl2542   2.439       .  S
N2532      C2543   1.344       .  A
C2533      C3997   1.421       .  S
Co2535    Cl2542   2.430       .  S
C2543      C3154   1.422       .  S
C2546      C2583   1.455       .  S
C2546      C3007   1.451       .  S
C2546      N2564   1.344       .  A
N2547      N2564   1.309       .  A
N2547      N2569   1.314       .  A
N2547     Co2584   2.046       .  S
C2548      C2586   1.473       .  S
C2548      N2573   1.352       .  A
C2548      H2593   1.081       .  S
H2549      C2590   1.081       .  S
C2550      C2554   1.448       .  S
C2550      N2574   1.333       .  A
C2550      H2579   1.081       .  S
Co2551     N2569   2.036       .  S
Co2551     N2559   2.075       .  S
Co2551     N2591   2.037       .  S
Co2551     N2567   2.078       .  S
Co2551    Cl2595   2.458       .  S
N2552      C2590   1.352       .  A
N2552      N2559   1.315       .  A
N2552     Co2553   2.109       .  S
Co2553     N2556   2.052       .  S
Co2553     N2573   2.110       .  S
Co2553     N2560   2.047       .  S
Co2553    Cl2595   2.446       .  S
C2554      C3117   1.427       .  S
C2554      N2592   1.336       .  A
N2555      N2562   1.314       .  A
N2555      N2585   1.343       .  A
N2555     Co2588   2.160       .  S
N2556      N2574   1.327       .  A
N2556      N2592   1.316       .  A
N2557      C2586   1.350       .  A
N2557      N2567   1.323       .  A
H2558      C2583   1.075       .  S
N2559      N2580   1.323       .  A
N2560      N2578   1.326       .  A
N2560      N2565   1.315       .  A
C2561      C2589   1.453       .  S
C2561      C3257   1.438       .  S
C2561      N2565   1.337       .  A
N2562      C2577   1.340       .  A
N2562     Co2584   2.074       .  S
C2563      C2566   1.451       .  S
C2563      N2591   1.333       .  A
C2563      H2597   1.081       .  S
C2566      C2994   1.414       .  S
C2566      N2587   1.335       .  A
N2567      N2573   1.316       .  A
N2568      C2594   1.345       .  A
N2568      N2570   1.314       .  A
N2568     Co2584   2.085       .  S
N2569      C2583   1.332       .  A
N2570      N2598   1.341       .  A
N2570     Co2588   2.157       .  S
H2571      C2594   1.081       .  S
H2572      C2589   1.081       .  S
N2574     Co2588   2.079       .  S
N2575      N2587   1.306       .  A
N2575      N2591   1.314       .  A
N2575     Co2584   2.026       .  S
C2576      C2590   1.473       .  S
C2576      C3017   1.485       .  S
C2576      N2580   1.345       .  A
C2577      C2596   1.456       .  S
C2577      H2581   1.082       .  S
N2578      C2589   1.333       .  A
N2578     Co2588   2.079       .  S
C2582      C2594   1.458       .  S
C2582      C4694   1.518       .  S
C2582      N2598   1.370       .  A
Co2584    Cl2595   2.417       .  S
N2585      C2596   1.372       .  A
C2586      C3024   1.492       .  S
Co2588    Cl2595   2.464       .  S
C2596      C4934   1.520       .  S
C2599      C2636   1.489       .  S
C2599      C5194   1.517       .  S
C2599      N2617   1.348       .  A
N2600      N2617   1.326       .  A
N2600      N2622   1.312       .  A
N2600     Co2637   2.070       .  S
C2601      C2639   1.439       .  S
C2601      N2626   1.331       .  A
C2601      H2646   1.082       .  S
H2602      C2643   1.081       .  S
C2603      C2607   1.461       .  S
C2603      N2627   1.343       .  A
C2603      H2632   1.082       .  S
Co2604     N2622   2.144       .  S
Co2604     N2612   2.084       .  S
Co2604     N2644   2.172       .  S
Co2604     N2620   2.067       .  S
Co2604    Cl2648   2.438       .  S
N2605      C2643   1.329       .  A
N2605      N2612   1.327       .  A
N2605     Co2606   2.048       .  S
Co2606     N2609   2.100       .  S
Co2606     N2626   2.041       .  S
Co2606     N2613   2.106       .  S
Co2606    Cl2648   2.461       .  S
C2607      C3014   1.488       .  S
C2607      N2645   1.356       .  A
N2608      N2615   1.317       .  A
N2608      N2638   1.311       .  A
N2608     Co2641   2.039       .  S
N2609      N2627   1.314       .  A
N2609      N2645   1.331       .  A
N2610      C2639   1.341       .  A
N2610      N2620   1.312       .  A
H2611      C2636   1.081       .  S
N2612      N2633   1.318       .  A
N2613      N2631   1.316       .  A
N2613      N2618   1.333       .  A
C2614      C2642   1.459       .  S
C2614      C2984   1.494       .  S
C2614      N2618   1.359       .  A
N2615      C2630   1.324       .  A
N2615     Co2637   2.023       .  S
C2616      C2619   1.495       .  S
C2616      N2644   1.367       .  A
C2616      H2650   1.081       .  S
C2619      C2977   1.524       .  S
C2619      N2640   1.346       .  A
N2620      N2626   1.325       .  A
N2621      C2647   1.320       .  A
N2621      N2623   1.313       .  A
N2621     Co2637   2.020       .  S
N2622      C2636   1.361       .  A
N2623      N2651   1.312       .  A
N2623     Co2641   2.039       .  S
H2624      C2647   1.078       .  S
H2625      C2642   1.081       .  S
N2627     Co2641   2.083       .  S
N2628      N2640   1.327       .  A
N2628      N2644   1.316       .  A
N2628     Co2637   2.074       .  S
C2629      C2643   1.438       .  S
C2629      C3087   1.434       .  S
C2629      N2633   1.345       .  A
C2630      C2649   1.434       .  S
C2630      H2634   1.080       .  S
N2631      C2642   1.338       .  A
N2631     Co2641   2.079       .  S
C2635      C2647   1.447       .  S
C2635      C2957   1.440       .  S
C2635      N2651   1.346       .  A
Co2637    Cl2648   2.444       .  S
N2638      C2649   1.340       .  A
C2639      C4267   1.428       .  S
Co2641    Cl2648   2.426       .  S
C2649      C2967   1.413       .  S
C2652      C2689   1.452       .  S
C2652      C2937   1.418       .  S
C2652      N2670   1.333       .  A
N2653      N2670   1.305       .  A
N2653      N2675   1.315       .  A
N2653     Co2690   2.014       .  S
C2654      C2692   1.475       .  S
C2654      N2679   1.354       .  A
C2654      H2699   1.081       .  S
H2655      C2696   1.081       .  S
C2656      C2660   1.450       .  S
C2656      N2680   1.328       .  A
C2656      H2685   1.081       .  S
Co2657     N2675   2.043       .  S
Co2657     N2665   2.072       .  S
Co2657     N2697   2.030       .  S
Co2657     N2673   2.073       .  S
Co2657    Cl2701   2.440       .  S
N2658      C2696   1.353       .  A
N2658      N2665   1.316       .  A
N2658     Co2659   2.120       .  S
Co2659     N2662   2.056       .  S
Co2659     N2679   2.109       .  S
Co2659     N2666   2.063       .  S
Co2659    Cl2701   2.460       .  S
C2660      C3327   1.443       .  S
C2660      N2698   1.337       .  A
N2661      N2668   1.315       .  A
N2661      N2691   1.344       .  A
N2661     Co2694   2.170       .  S
N2662      N2680   1.327       .  A
N2662      N2698   1.317       .  A
N2663      C2692   1.346       .  A
N2663      N2673   1.322       .  A
H2664      C2689   1.081       .  S
N2665      N2686   1.322       .  A
N2666      N2684   1.327       .  A
N2666      N2671   1.323       .  A
C2667      C2695   1.455       .  S
C2667      C4367   1.460       .  S
C2667      N2671   1.343       .  A
N2668      C2683   1.346       .  A
N2668     Co2690   2.087       .  S
C2669      C2672   1.446       .  S
C2669      N2697   1.328       .  A
C2669      H2703   1.076       .  S
C2672      C2944   1.437       .  S
C2672      N2693   1.344       .  A
N2673      N2679   1.314       .  A
N2674      C2700   1.343       .  A
N2674      N2676   1.313       .  A
N2674     Co2690   2.068       .  S
N2675      C2689   1.333       .  A
N2676      N2704   1.342       .  A
N2676     Co2694   2.167       .  S
H2677      C2700   1.082       .  S
H2678      C2695   1.080       .  S
N2680     Co2694   2.067       .  S
N2681      N2693   1.310       .  A
N2681      N2697   1.314       .  A
N2681     Co2690   2.041       .  S
C2682      C2696   1.478       .  S
C2682      C3027   1.494       .  S
C2682      N2686   1.348       .  A
C2683      C2702   1.458       .  S
C2683      H2687   1.081       .  S
N2684      C2695   1.321       .  A
N2684     Co2694   2.073       .  S
C2688      C2700   1.454       .  S
C2688      C4997   1.516       .  S
C2688      N2704   1.371       .  A
Co2690    Cl2701   2.434       .  S
N2691      C2702   1.373       .  A
C2692      C2987   1.490       .  S
Co2694    Cl2701   2.451       .  S
C2702      C5214   1.524       .  S
C2705      C2742   1.488       .  S
C2705      C5207   1.519       .  S
C2705      N2723   1.349       .  A
N2706      N2723   1.330       .  A
N2706      N2728   1.316       .  A
N2706     Co2743   2.087       .  S
C2707      C2745   1.445       .  S
C2707      N2732   1.331       .  A
C2707      H2752   1.080       .  S
H2708      C2749   1.081       .  S
C2709      C2713   1.462       .  S
C2709      N2733   1.342       .  A
C2709      H2738   1.082       .  S
Co2710     N2728   2.157       .  S
Co2710     N2718   2.082       .  S
Co2710     N2750   2.169       .  S
Co2710     N2726   2.080       .  S
Co2710    Cl2754   2.446       .  S
N2711      C2749   1.331       .  A
N2711      N2718   1.326       .  A
N2711     Co2712   2.056       .  S
Co2712     N2715   2.109       .  S
Co2712     N2732   2.055       .  S
Co2712     N2719   2.116       .  S
Co2712    Cl2754   2.463       .  S
C2713      C2914   1.498       .  S
C2713      N2751   1.358       .  A
N2714      N2721   1.317       .  A
N2714      N2744   1.314       .  A
N2714     Co2747   2.030       .  S
N2715      N2733   1.316       .  A
N2715      N2751   1.333       .  A
N2716      C2745   1.345       .  A
N2716      N2726   1.316       .  A
H2717      C2742   1.081       .  S
N2718      N2739   1.317       .  A
N2719      N2737   1.314       .  A
N2719      N2724   1.334       .  A
C2720      C2748   1.452       .  S
C2720      C2927   1.488       .  S
C2720      N2724   1.362       .  A
N2721      C2736   1.321       .  A
N2721     Co2743   2.025       .  S
C2722      C2725   1.493       .  S
C2722      N2750   1.365       .  A
C2722      H2756   1.081       .  S
C2725      C4944   1.516       .  S
C2725      N2746   1.344       .  A
N2726      N2732   1.326       .  A
N2727      C2753   1.324       .  A
N2727      N2729   1.314       .  A
N2727     Co2743   2.042       .  S
N2728      C2742   1.362       .  A
N2729      N2757   1.317       .  A
N2729     Co2747   2.049       .  S
H2730      C2753   1.081       .  S
H2731      C2748   1.082       .  S
N2733     Co2747   2.091       .  S
N2734      N2746   1.326       .  A
N2734      N2750   1.315       .  A
N2734     Co2743   2.062       .  S
C2735      C2749   1.443       .  S
C2735      C3224   1.444       .  S
C2735      N2739   1.345       .  A
C2736      C2755   1.432       .  S
C2736      H2740   1.080       .  S
N2737      C2748   1.333       .  A
N2737     Co2747   2.058       .  S
C2741      C2753   1.447       .  S
C2741      C3004   1.435       .  S
C2741      N2757   1.349       .  A
Co2743    Cl2754   2.441       .  S
N2744      C2755   1.338       .  A
C2745      C4174   1.447       .  S
Co2747    Cl2754   2.434       .  S
C2755      C2964   1.409       .  S
C2758      C2795   1.484       .  S
C2758      C5007   1.505       .  S
C2758      N2776   1.345       .  A
N2759      N2776   1.326       .  A
N2759      N2781   1.312       .  A
N2759     Co2796   2.068       .  S
C2760      C2798   1.441       .  S
C2760      N2785   1.330       .  A
C2760      H2805   1.081       .  S
H2761      C2802   1.081       .  S
C2762      C2766   1.456       .  S
C2762      N2786   1.336       .  A
C2762      H2791   1.082       .  S
Co2763     N2781   2.143       .  S
Co2763     N2771   2.080       .  S
Co2763     N2803   2.157       .  S
Co2763     N2779   2.070       .  S
Co2763    Cl2807   2.420       .  S
N2764      C2802   1.329       .  A
N2764      N2771   1.328       .  A
N2764     Co2765   2.058       .  S
Co2765     N2768   2.100       .  S
Co2765     N2785   2.046       .  S
Co2765     N2772   2.118       .  S
Co2765    Cl2807   2.465       .  S
C2766      C2907   1.481       .  S
C2766      N2804   1.359       .  A
N2767      N2774   1.315       .  A
N2767      N2797   1.315       .  A
N2767     Co2800   2.037       .  S
N2768      N2786   1.310       .  A
N2768      N2804   1.331       .  A
N2769      C2798   1.342       .  A
N2769      N2779   1.311       .  A
H2770      C2795   1.081       .  S
N2771      N2792   1.317       .  A
N2772      N2790   1.314       .  A
N2772      N2777   1.336       .  A
C2773      C2801   1.455       .  S
C2773      C2917   1.496       .  S
C2773      N2777   1.363       .  A
N2774      C2789   1.325       .  A
N2774     Co2796   2.047       .  S
C2775      C2778   1.489       .  S
C2775      N2803   1.362       .  A
C2775      H2809   1.081       .  S
C2778      C2894   1.522       .  S
C2778      N2799   1.351       .  A
N2779      N2785   1.326       .  A
N2780      C2806   1.324       .  A
N2780      N2782   1.317       .  A
N2780     Co2796   2.036       .  S
N2781      C2795   1.359       .  A
N2782      N2810   1.315       .  A
N2782     Co2800   2.031       .  S
H2783      C2806   1.079       .  S
H2784      C2801   1.082       .  S
N2786     Co2800   2.056       .  S
N2787      N2799   1.329       .  A
N2787      N2803   1.314       .  A
N2787     Co2796   2.085       .  S
C2788      C2802   1.443       .  S
C2788      C3054   1.433       .  S
C2788      N2792   1.343       .  A
C2789      C2808   1.449       .  S
C2789      H2793   1.078       .  S
N2790      C2801   1.336       .  A
N2790     Co2800   2.075       .  S
C2794      C2806   1.443       .  S
C2794      C2954   1.411       .  S
C2794      N2810   1.338       .  A
Co2796    Cl2807   2.462       .  S
N2797      C2808   1.347       .  A
C2798      C3197   1.427       .  S
Co2800    Cl2807   2.422       .  S
C2808      C2947   1.435       .  S
C2811      C2848   1.450       .  S
C2811      C2934   1.417       .  S
C2811      N2829   1.333       .  A
N2812      N2829   1.307       .  A
N2812      N2834   1.316       .  A
N2812     Co2849   2.021       .  S
C2813      C2851   1.470       .  S
C2813      N2838   1.349       .  A
C2813      H2858   1.081       .  S
H2814      C2855   1.081       .  S
C2815      C2819   1.447       .  S
C2815      N2839   1.332       .  A
C2815      H2844   1.081       .  S
Co2816     N2834   2.039       .  S
Co2816     N2824   2.077       .  S
Co2816     N2856   2.043       .  S
Co2816     N2832   2.076       .  S
Co2816    Cl2860   2.456       .  S
N2817      C2855   1.348       .  A
N2817      N2824   1.314       .  A
N2817     Co2818   2.096       .  S
Co2818     N2821   2.037       .  S
Co2818     N2838   2.096       .  S
Co2818     N2825   2.044       .  S
Co2818    Cl2860   2.430       .  S
C2819      C3037   1.419       .  S
C2819      N2857   1.332       .  A
N2820      N2827   1.313       .  A
N2820      N2850   1.340       .  A
N2820     Co2853   2.151       .  S
N2821      N2839   1.327       .  A
N2821      N2857   1.312       .  A
N2822      C2851   1.349       .  A
N2822      N2832   1.324       .  A
H2823      C2848   1.081       .  S
N2824      N2845   1.324       .  A
N2825      N2843   1.328       .  A
N2825      N2830   1.315       .  A
C2826      C2854   1.447       .  S
C2826      C4157   1.420       .  S
C2826      N2830   1.333       .  A
N2827      C2842   1.342       .  A
N2827     Co2849   2.070       .  S
C2828      C2831   1.463       .  S
C2828      N2856   1.329       .  A
C2828      H2862   1.078       .  S
C2831      C2997   1.445       .  S
C2831      N2852   1.340       .  A
N2832      N2838   1.314       .  A
N2833      C2859   1.335       .  A
N2833      N2835   1.311       .  A
N2833     Co2849   2.053       .  S
N2834      C2848   1.330       .  A
N2835      N2863   1.343       .  A
N2835     Co2853   2.155       .  S
H2836      C2859   1.082       .  S
H2837      C2854   1.081       .  S
N2839     Co2853   2.075       .  S
N2840      N2852   1.309       .  A
N2840      N2856   1.314       .  A
N2840     Co2849   2.034       .  S
C2841      C2855   1.468       .  S
C2841      C2904   1.483       .  S
C2841      N2845   1.350       .  A
C2842      C2861   1.455       .  S
C2842      H2846   1.081       .  S
N2843      C2854   1.330       .  A
N2843     Co2853   2.075       .  S
C2847      C2859   1.449       .  S
C2847      C4707   1.511       .  S
C2847      N2863   1.373       .  A
Co2849    Cl2860   2.420       .  S
N2850      C2861   1.369       .  A
C2851      C2924   1.486       .  S
Co2853    Cl2860   2.456       .  S
C2861      C5224   1.511       .  S
O2864      C2872   1.259       .  A
O2864     Co2884   1.974       .  S
O2865      C2873   1.259       .  A
O2865     Co2885   1.995   1_565  S
O2866      C2874   1.279       .  A
O2866     Co2886   2.075       .  S
O2867      C2875   1.276       .  A
O2867     Co2887   2.069       .  S
O2868      C2874   1.258       .  A
O2868     Co2885   1.987       .  S
O2869      C2875   1.254       .  A
O2869     Co2884   1.971   1_565  S
O2870      C2873   1.280       .  A
O2870     Co2887   2.079       .  S
O2871      C2872   1.278       .  A
O2871     Co2886   2.071       .  S
C2872      C4297   1.516       .  S
C2873      C3307   1.524       .  S
C2874      C2974   1.528       .  S
C2875      C3927   1.523       .  S
O2876      C2889   1.278       .  A
O2876     Co2884   2.071   1_565  S
O2877      C2890   1.281       .  A
O2877     Co2885   2.080       .  S
O2878      C2891   1.265       .  A
O2878     Co2886   2.007       .  S
O2879      C2892   1.262       .  A
O2879     Co2887   1.998       .  S
O2880      C2892   1.278       .  A
O2880     Co2885   2.074   1_565  S
O2881      C2891   1.276       .  A
O2881     Co2884   2.060       .  S
O2882      C2889   1.263       .  A
O2882     Co2887   1.988       .  S
O2883      C2890   1.262       .  A
O2883     Co2886   1.982       .  S
Co2884     O2888   2.133       .  S
Co2885     O2888   2.146       .  S
Co2886     O2888   2.149       .  S
Co2887     O2888   2.148   1_565  S
C2889      C3787   1.517       .  S
C2890      C2897   1.524       .  S
C2891      C4227   1.534       .  S
C2892      C3207   1.522       .  S
C2893      H2900   1.083       .  S
C2893      C2894   1.408       .  A
C2893      C2898   1.414       .  A
C2894      C2895   1.418       .  A
C2895      C2896   1.425       .  A
C2895     Br2902   1.916       .  S
C2896      H2901   1.083       .  S
C2896      C2897   1.414       .  A
C2897      C2898   1.419       .  A
C2898     Br2899   1.921       .  S
C2903      H2910   1.083       .  S
C2903      C2904   1.406       .  A
C2903      C2908   1.409       .  A
C2904      C2905   1.410       .  A
C2905      C2906   1.400       .  A
C2905     Br2912   1.920       .  S
C2906      H2911   1.084       .  S
C2906      C2907   1.403       .  A
C2907      C2908   1.409       .  A
C2908     Br2909   1.917       .  S
C2913      H2920   1.084       .  S
C2913      C2914   1.404       .  A
C2913      C2918   1.403       .  A
C2914      C2915   1.416       .  A
C2915      C2916   1.415       .  A
C2915     Br2922   1.917       .  S
C2916      H2921   1.083       .  S
C2916      C2917   1.408       .  A
C2917      C2918   1.413       .  A
C2918     Br2919   1.921       .  S
C2923      H2930   1.084       .  S
C2923      C2924   1.401       .  A
C2923      C2928   1.399       .  A
C2924      C2925   1.414       .  A
C2925      C2926   1.411       .  A
C2925     Br2932   1.918       .  S
C2926      H2931   1.083       .  S
C2926      C2927   1.407       .  A
C2927      C2928   1.412       .  A
C2928     Br2929   1.921       .  S
C2933      H2940   1.084       .  S
C2933      C2934   1.406       .  A
C2933      C2938   1.376       .  A
C2934      C2935   1.390       .  A
C2935      C2936   1.373       .  A
C2935     Br2942   1.921       .  S
C2936      H2941   1.084       .  S
C2936      C2937   1.406       .  A
C2937      C2938   1.390       .  A
C2938     Br2939   1.920       .  S
C2943      H2950   1.085       .  S
C2943      C2944   1.404       .  A
C2943      C2948   1.382       .  A
C2944      C2945   1.413       .  A
C2945      C2946   1.371       .  A
C2945     Br2952   1.928       .  S
C2946      H2951   1.084       .  S
C2946      C2947   1.399       .  A
C2947      C2948   1.400       .  A
C2948     Br2949   1.920       .  S
C2953      H2960   1.085       .  S
C2953      C2954   1.398       .  A
C2953      C2958   1.374       .  A
C2954      C2955   1.389       .  A
C2955      C2956   1.376       .  A
C2955     Br2962   1.921       .  S
C2956      H2961   1.079       .  S
C2956      C2957   1.410       .  A
C2957      C2958   1.404       .  A
C2958     Br2959   1.925       .  S
C2963      H2970   1.085       .  S
C2963      C2964   1.386       .  A
C2963      C2968   1.376       .  A
C2964      C2965   1.405       .  A
C2965      C2966   1.372       .  A
C2965     Br2972   1.923       .  S
C2966      H2971   1.085       .  S
C2966      C2967   1.389       .  A
C2967      C2968   1.412       .  A
C2968     Br2969   1.926       .  S
C2973      H2980   1.083       .  S
C2973      C2974   1.407       .  A
C2973      C2978   1.415       .  A
C2974      C2975   1.426       .  A
C2975      C2976   1.423       .  A
C2975     Br2982   1.919       .  S
C2976      H2981   1.083       .  S
C2976      C2977   1.408       .  A
C2977      C2978   1.420       .  A
C2978     Br2979   1.913       .  S
C2983      H2990   1.084       .  S
C2983      C2984   1.403       .  A
C2983      C2988   1.399       .  A
C2984      C2985   1.416       .  A
C2985      C2986   1.414       .  A
C2985     Br2992   1.916       .  S
C2986      H2991   1.083       .  S
C2986      C2987   1.407       .  A
C2987      C2988   1.410       .  A
C2988     Br2989   1.919       .  S
C2993      H3000   1.085       .  S
C2993      C2994   1.402       .  A
C2993      C2998   1.377       .  A
C2994      C2995   1.390       .  A
C2995      C2996   1.379       .  A
C2995     Br3002   1.920       .  S
C2996      H3001   1.083       .  S
C2996      C2997   1.412       .  A
C2997      C2998   1.399       .  A
C2998     Br2999   1.922       .  S
C3003      H3010   1.084       .  S
C3003      C3004   1.405       .  A
C3003      C3008   1.380       .  A
C3004      C3005   1.397       .  A
C3005      C3006   1.382       .  A
C3005     Br3012   1.916       .  S
C3006      H3011   1.083       .  S
C3006      C3007   1.406       .  A
C3007      C3008   1.404       .  A
C3008     Br3009   1.920       .  S
C3013      H3020   1.083       .  S
C3013      C3014   1.404       .  A
C3013      C3018   1.406       .  A
C3014      C3015   1.411       .  A
C3015      C3016   1.407       .  A
C3015     Br3022   1.917       .  S
C3016      H3021   1.083       .  S
C3016      C3017   1.405       .  A
C3017      C3018   1.409       .  A
C3018     Br3019   1.918       .  S
C3023      H3030   1.083       .  S
C3023      C3024   1.408       .  A
C3023      C3028   1.413       .  A
C3024      C3025   1.410       .  A
C3025      C3026   1.401       .  A
C3025     Br3032   1.921       .  S
C3026      H3031   1.084       .  S
C3026      C3027   1.405       .  A
C3027      C3028   1.415       .  A
C3028     Br3029   1.917       .  S
C3033      H3040   1.085       .  S
C3033      C3034   1.393       .  A
C3033      C3038   1.377   1_455  A
C3034      C3035   1.397       .  A
C3035      C3036   1.382   1_455  A
C3035     Br3042   1.914       .  S
C3036      H3041   1.084       .  S
C3036      C3037   1.394       .  A
C3037      C3038   1.403       .  A
C3038     Br3039   1.924       .  S
C3043      H3050   1.084       .  S
C3043      C3044   1.405       .  A
C3043      C3048   1.402       .  A
C3044      C3045   1.413       .  A
C3045      C3046   1.413       .  A
C3045     Br3052   1.917       .  S
C3046      H3051   1.083       .  S
C3046      C3047   1.408       .  A
C3047      C3048   1.409       .  A
C3048     Br3049   1.920       .  S
C3053      H3060   1.084       .  S
C3053      C3054   1.397       .  A
C3053      C3058   1.380   1_655  A
C3054      C3055   1.401       .  A
C3055      C3056   1.385   1_655  A
C3055     Br3062   1.920       .  S
C3056      H3061   1.084       .  S
C3056      C3057   1.398       .  A
C3057      C3058   1.403       .  A
C3058     Br3059   1.922       .  S
C3063      H3070   1.084       .  S
C3063      C3064   1.403       .  A
C3063      C3068   1.402       .  A
C3064      C3065   1.410       .  A
C3065      C3066   1.410       .  A
C3065     Br3072   1.917       .  S
C3066      H3071   1.083       .  S
C3066      C3067   1.406       .  A
C3067      C3068   1.412       .  A
C3068     Br3069   1.921       .  S
C3073      H3080   1.084       .  S
C3073      C3074   1.401       .  A
C3073      C3078   1.400       .  A
C3074      C3075   1.416       .  A
C3075      C3076   1.412       .  A
C3075     Br3082   1.918       .  S
C3076      H3081   1.083       .  S
C3076      C3077   1.405       .  A
C3077      C3078   1.413       .  A
C3078     Br3079   1.922       .  S
C3083      H3090   1.084       .  S
C3083      C3084   1.398       .  A
C3083      C3088   1.383       .  A
C3084      C3085   1.408       .  A
C3085      C3086   1.382       .  A
C3085     Br3092   1.924       .  S
C3086      H3091   1.084       .  S
C3086      C3087   1.396       .  A
C3087      C3088   1.400       .  A
C3088     Br3089   1.920       .  S
C3093      H3100   1.080       .  S
C3093      C3094   1.404       .  A
C3093      C3098   1.375       .  A
C3094      C3095   1.410       .  A
C3095      C3096   1.380       .  A
C3095     Br3102   1.921       .  S
C3096      H3101   1.082       .  S
C3096      C3097   1.394       .  A
C3097      C3098   1.405       .  A
C3098     Br3099   1.927       .  S
C3103      H3110   1.084       .  S
C3103      C3104   1.394       .  A
C3103      C3108   1.371       .  A
C3104      C3105   1.416       .  A
C3105      C3106   1.376       .  A
C3105     Br3112   1.926       .  S
C3106      H3111   1.085       .  S
C3106      C3107   1.385       .  A
C3107      C3108   1.400       .  A
C3108     Br3109   1.925       .  S
C3113      H3120   1.084       .  S
C3113      C3114   1.396       .  A
C3113      C3118   1.386       .  A
C3114      C3115   1.400       .  A
C3115      C3116   1.381       .  A
C3115     Br3122   1.922       .  S
C3116      H3121   1.084       .  S
C3116      C3117   1.395       .  A
C3117      C3118   1.400       .  A
C3118     Br3119   1.919       .  S
C3123      H3130   1.084       .  S
C3123      C3124   1.404       .  A
C3123      C3128   1.382       .  A
C3124      C3125   1.400       .  A
C3125      C3126   1.385       .  A
C3125     Br3132   1.921       .  S
C3126      H3131   1.085       .  S
C3126      C3127   1.406       .  A
C3127      C3128   1.404       .  A
C3128     Br3129   1.920       .  S
C3133      H3140   1.085       .  S
C3133      C3134   1.381       .  A
C3133      C3138   1.373       .  A
C3134      C3135   1.404       .  A
C3135      C3136   1.369       .  A
C3135     Br3142   1.923       .  S
C3136      H3141   1.085       .  S
C3136      C3137   1.390       .  A
C3137      C3138   1.418       .  A
C3138     Br3139   1.927       .  S
C3143      H3150   1.084       .  S
C3143      C3144   1.403       .  A
C3143      C3148   1.401       .  A
C3144      C3145   1.410       .  A
C3145      C3146   1.410       .  A
C3145     Br3152   1.917       .  S
C3146      H3151   1.083       .  S
C3146      C3147   1.407       .  A
C3147      C3148   1.412       .  A
C3148     Br3149   1.921       .  S
C3153      H3160   1.085       .  S
C3153      C3154   1.391       .  A
C3153      C3158   1.370       .  A
C3154      C3155   1.423       .  A
C3155      C3156   1.372       .  A
C3155     Br3162   1.928       .  S
C3156      H3161   1.085       .  S
C3156      C3157   1.380       .  A
C3157      C3158   1.403       .  A
C3158     Br3159   1.925       .  S
C3163      H3170   1.085       .  S
C3163      C3164   1.402       .  A
C3163      C3168   1.381       .  A
C3164      C3165   1.416       .  A
C3165      C3166   1.374       .  A
C3165     Br3172   1.931       .  S
C3166      H3171   1.084       .  S
C3166      C3167   1.397       .  A
C3167      C3168   1.399       .  A
C3168     Br3169   1.919       .  S
C3173      H3180   1.083       .  S
C3173      C3174   1.408       .  A
C3173      C3178   1.413       .  A
C3174      C3175   1.413       .  A
C3175      C3176   1.400       .  A
C3175     Br3182   1.922       .  S
C3176      H3181   1.084       .  S
C3176      C3177   1.403       .  A
C3177      C3178   1.414       .  A
C3178     Br3179   1.916       .  S
C3183      H3190   1.083       .  S
C3183      C3184   1.409       .  A
C3183      C3188   1.414       .  A
C3184      C3185   1.412       .  A
C3185      C3186   1.402       .  A
C3185     Br3192   1.920       .  S
C3186      H3191   1.084       .  S
C3186      C3187   1.404       .  A
C3187      C3188   1.414       .  A
C3188     Br3189   1.917       .  S
C3193      H3200   1.084       .  S
C3193      C3194   1.397       .  A
C3193      C3198   1.386   1_565  A
C3194      C3195   1.403       .  A
C3195      C3196   1.374   1_565  A
C3195     Br3202   1.925       .  S
C3196      H3201   1.085       .  S
C3196      C3197   1.396       .  A
C3197      C3198   1.400       .  A
C3198     Br3199   1.918       .  S
C3203      H3210   1.079       .  S
C3203      C3204   1.414       .  A
C3203      C3208   1.407       .  A
C3204      C3205   1.423       .  A
C3205      C3206   1.429       .  A
C3205     Br3212   1.915       .  S
C3206      H3211   1.083       .  S
C3206      C3207   1.416       .  A
C3207      C3208   1.411       .  A
C3208     Br3209   1.914       .  S
C3213      H3220   1.084       .  S
C3213      C3214   1.402       .  A
C3213      C3218   1.399       .  A
C3214      C3215   1.414       .  A
C3215      C3216   1.412       .  A
C3215     Br3222   1.917       .  S
C3216      H3221   1.083       .  S
C3216      C3217   1.407       .  A
C3217      C3218   1.411       .  A
C3218     Br3219   1.921       .  S
C3223      H3230   1.084       .  S
C3223      C3224   1.400       .  A
C3223      C3228   1.386   1_545  A
C3224      C3225   1.407       .  A
C3225      C3226   1.384   1_545  A
C3225     Br3232   1.922       .  S
C3226      H3231   1.084       .  S
C3226      C3227   1.400       .  A
C3227      C3228   1.403       .  A
C3228     Br3229   1.920       .  S
C3233      H3240   1.083       .  S
C3233      C3234   1.407       .  A
C3233      C3238   1.413       .  A
C3234      C3235   1.412       .  A
C3235      C3236   1.403       .  A
C3235     Br3242   1.922       .  S
C3236      H3241   1.084       .  S
C3236      C3237   1.404       .  A
C3237      C3238   1.411       .  A
C3238     Br3239   1.916       .  S
C3243      H3250   1.084       .  S
C3243      C3244   1.402       .  A
C3243      C3248   1.404       .  A
C3244      C3245   1.418       .  A
C3245      C3246   1.416       .  A
C3245     Br3252   1.917       .  S
C3246      H3251   1.083       .  S
C3246      C3247   1.407       .  A
C3247      C3248   1.415       .  A
C3248     Br3249   1.918       .  S
C3253      H3260   1.084       .  S
C3253      C3254   1.397       .  A
C3253      C3258   1.383       .  A
C3254      C3255   1.404       .  A
C3255      C3256   1.383       .  A
C3255     Br3262   1.922       .  S
C3256      H3261   1.084       .  S
C3256      C3257   1.399       .  A
C3257      C3258   1.400       .  A
C3258     Br3259   1.916       .  S
C3263      H3270   1.082       .  S
C3263      C3264   1.398       .  A
C3263      C3268   1.377       .  A
C3264      C3265   1.419       .  A
C3265      C3266   1.375       .  A
C3265     Br3272   1.915       .  S
C3266      H3271   1.085       .  S
C3266      C3267   1.383       .  A
C3267      C3268   1.407       .  A
C3268     Br3269   1.925       .  S
C3273      H3280   1.081       .  S
C3273      C3274   1.399       .  A
C3273      C3278   1.376       .  A
C3274      C3275   1.410       .  A
C3275      C3276   1.378       .  A
C3275     Br3282   1.912       .  S
C3276      H3281   1.085       .  S
C3276      C3277   1.390       .  A
C3277      C3278   1.409       .  A
C3278     Br3279   1.926       .  S
C3283      H3290   1.083       .  S
C3283      C3284   1.400       .  A
C3283      C3288   1.373       .  A
C3284      C3285   1.399       .  A
C3285      C3286   1.383       .  A
C3285     Br3292   1.920       .  S
C3286      H3291   1.085       .  S
C3286      C3287   1.405       .  A
C3287      C3288   1.410       .  A
C3288     Br3289   1.926       .  S
C3293      H3300   1.085       .  S
C3293      C3294   1.390       .  A
C3293      C3298   1.368       .  A
C3294      C3295   1.422       .  A
C3295      C3296   1.372       .  A
C3295     Br3302   1.929       .  S
C3296      H3301   1.085       .  S
C3296      C3297   1.380       .  A
C3297      C3298   1.405       .  A
C3298     Br3299   1.927       .  S
C3303      H3310   1.083       .  S
C3303      C3304   1.409       .  A
C3303      C3308   1.423       .  A
C3304      C3305   1.436       .  A
C3305      C3306   1.412       .  A
C3305     Br3312   1.921       .  S
C3306      H3311   1.084       .  S
C3306      C3307   1.399       .  A
C3307      C3308   1.420       .  A
C3308     Br3309   1.895       .  S
C3313      H3320   1.084       .  S
C3313      C3314   1.405       .  A
C3313      C3318   1.400       .  A
C3314      C3315   1.412       .  A
C3315      C3316   1.414       .  A
C3315     Br3322   1.916       .  S
C3316      H3321   1.083       .  S
C3316      C3317   1.408       .  A
C3317      C3318   1.411       .  A
C3318     Br3319   1.921       .  S
C3323      H3330   1.083       .  S
C3323      C3324   1.401       .  A
C3323      C3328   1.386       .  A
C3324      C3325   1.403       .  A
C3325      C3326   1.380       .  A
C3325     Br3332   1.913       .  S
C3326      H3331   1.084       .  S
C3326      C3327   1.397       .  A
C3327      C3328   1.406       .  A
C3328     Br3329   1.922       .  S
C3333      H3340   1.084       .  S
C3333      C3334   1.400       .  A
C3333      C3338   1.380       .  A
C3334      C3335   1.393       .  A
C3335      C3336   1.377       .  A
C3335     Br3342   1.918       .  S
C3336      H3341   1.082       .  S
C3336      C3337   1.405       .  A
C3337      C3338   1.405       .  A
C3338     Br3339   1.922       .  S
C3343      H3350   1.085       .  S
C3343      C3344   1.402       .  A
C3343      C3348   1.382       .  A
C3344      C3345   1.414       .  A
C3345      C3346   1.378       .  A
C3345     Br3352   1.927       .  S
C3346      H3351   1.084       .  S
C3346      C3347   1.397       .  A
C3347      C3348   1.400       .  A
C3348     Br3349   1.922       .  S
C3353      H3360   1.084       .  S
C3353      C3354   1.404       .  A
C3353      C3358   1.402       .  A
C3354      C3355   1.416       .  A
C3355      C3356   1.417       .  A
C3355     Br3362   1.916       .  S
C3356      H3361   1.083       .  S
C3356      C3357   1.409       .  A
C3357      C3358   1.414       .  A
C3358     Br3359   1.921       .  S
C3363      H3370   1.083       .  S
C3363      C3364   1.409       .  A
C3363      C3368   1.415       .  A
C3364      C3365   1.412       .  A
C3365      C3366   1.400       .  A
C3365     Br3372   1.923       .  S
C3366      H3371   1.084       .  S
C3366      C3367   1.404       .  A
C3367      C3368   1.414       .  A
C3368     Br3369   1.916       .  S
C3373      H3380   1.084       .  S
C3373      C3374   1.399       .  A
C3373      C3378   1.386   1_565  A
C3374      C3375   1.406       .  A
C3375      C3376   1.381   1_565  A
C3375     Br3382   1.924       .  S
C3376      H3381   1.084       .  S
C3376      C3377   1.400       .  A
C3377      C3378   1.404       .  A
C3378     Br3379   1.921       .  S
C3383      H3390   1.084       .  S
C3383      C3384   1.397       .  A
C3383      C3388   1.383   1_565  A
C3384      C3385   1.404       .  A
C3385      C3386   1.381   1_565  A
C3385     Br3392   1.924       .  S
C3386      H3391   1.084       .  S
C3386      C3387   1.397       .  A
C3387      C3388   1.399       .  A
C3388     Br3389   1.918       .  S
C3393      H3400   1.084       .  S
C3393      C3394   1.400       .  A
C3393      C3398   1.386   1_455  A
C3394      C3395   1.403       .  A
C3395      C3396   1.385   1_455  A
C3395     Br3402   1.921       .  S
C3396      H3401   1.084       .  S
C3396      C3397   1.400       .  A
C3397      C3398   1.406       .  A
C3398     Br3399   1.922       .  S
C3403      H3410   1.084       .  S
C3403      C3404   1.406       .  A
C3403      C3408   1.403       .  A
C3404      C3405   1.418       .  A
C3405      C3406   1.418       .  A
C3405     Br3412   1.916       .  S
C3406      H3411   1.083       .  S
C3406      C3407   1.409       .  A
C3407      C3408   1.412       .  A
C3408     Br3409   1.920       .  S
C3413      H3420   1.084       .  S
C3413      C3414   1.399       .  A
C3413      C3418   1.384   1_455  A
C3414      C3415   1.405       .  A
C3415      C3416   1.382   1_455  A
C3415     Br3422   1.923       .  S
C3416      H3421   1.084       .  S
C3416      C3417   1.397       .  A
C3417      C3418   1.400       .  A
C3418     Br3419   1.921       .  S
C3423      H3430   1.083       .  S
C3423      C3424   1.402       .  A
C3423      C3428   1.401       .  A
C3424      C3425   1.414       .  A
C3425      C3426   1.413       .  A
C3425     Br3432   1.917       .  S
C3426      H3431   1.083       .  S
C3426      C3427   1.407       .  A
C3427      C3428   1.413       .  A
C3428     Br3429   1.922       .  S
C3433      H3440   1.084       .  S
C3433      C3434   1.403       .  A
C3433      C3438   1.400       .  A
C3434      C3435   1.410       .  A
C3435      C3436   1.411       .  A
C3435     Br3442   1.916       .  S
C3436      H3441   1.083       .  S
C3436      C3437   1.407       .  A
C3437      C3438   1.411       .  A
C3438     Br3439   1.922       .  S
C3443      H3450   1.084       .  S
C3443      C3444   1.397       .  A
C3443      C3448   1.385       .  A
C3444      C3445   1.404       .  A
C3445      C3446   1.383       .  A
C3445     Br3452   1.922       .  S
C3446      H3451   1.084       .  S
C3446      C3447   1.399       .  A
C3447      C3448   1.402       .  A
C3448     Br3449   1.917       .  S
C3453      H3460   1.085       .  S
C3453      C3454   1.382       .  A
C3453      C3458   1.374       .  A
C3454      C3455   1.403       .  A
C3455      C3456   1.372       .  A
C3455     Br3462   1.925       .  S
C3456      H3461   1.085       .  S
C3456      C3457   1.392       .  A
C3457      C3458   1.418       .  A
C3458     Br3459   1.926       .  S
C3463      H3470   1.082       .  S
C3463      C3464   1.405       .  A
C3463      C3468   1.380       .  A
C3464      C3465   1.410       .  A
C3465      C3466   1.379       .  A
C3465     Br3472   1.926       .  S
C3466      H3471   1.085       .  S
C3466      C3467   1.398       .  A
C3467      C3468   1.396       .  A
C3468     Br3469   1.919       .  S
C3473      H3480   1.084       .  S
C3473      C3474   1.397       .  A
C3473      C3478   1.387       .  A
C3474      C3475   1.403       .  A
C3475      C3476   1.375       .  A
C3475     Br3482   1.924       .  S
C3476      H3481   1.085       .  S
C3476      C3477   1.394       .  A
C3477      C3478   1.400       .  A
C3478     Br3479   1.918       .  S
C3483      H3490   1.084       .  S
C3483      C3484   1.398       .  A
C3483      C3488   1.383       .  A
C3484      C3485   1.405       .  A
C3485      C3486   1.385       .  A
C3485     Br3492   1.921       .  S
C3486      H3491   1.084       .  S
C3486      C3487   1.400       .  A
C3487      C3488   1.404       .  A
C3488     Br3489   1.921       .  S
C3493      H3500   1.085       .  S
C3493      C3494   1.387       .  A
C3493      C3498   1.368       .  A
C3494      C3495   1.426       .  A
C3495      C3496   1.373       .  A
C3495     Br3502   1.931       .  S
C3496      H3501   1.085       .  S
C3496      C3497   1.378       .  A
C3497      C3498   1.408       .  A
C3498     Br3499   1.922       .  S
C3503      H3510   1.085       .  S
C3503      C3504   1.398       .  A
C3503      C3508   1.379       .  A
C3504      C3505   1.393       .  A
C3505      C3506   1.379       .  A
C3505     Br3512   1.921       .  S
C3506      H3511   1.084       .  S
C3506      C3507   1.408       .  A
C3507      C3508   1.402       .  A
C3508     Br3509   1.918       .  S
C3513      H3520   1.083       .  S
C3513      C3514   1.407       .  A
C3513      C3518   1.413       .  A
C3514      C3515   1.412       .  A
C3515      C3516   1.401       .  A
C3515     Br3522   1.921       .  S
C3516      H3521   1.084       .  S
C3516      C3517   1.403       .  A
C3517      C3518   1.411       .  A
C3518     Br3519   1.917       .  S
C3523      H3530   1.084       .  S
C3523      C3524   1.396       .  A
C3523      C3528   1.386       .  A
C3524      C3525   1.400       .  A
C3525      C3526   1.377       .  A
C3525     Br3532   1.923       .  S
C3526      H3531   1.085       .  S
C3526      C3527   1.396       .  A
C3527      C3528   1.398       .  A
C3528     Br3529   1.917       .  S
C3533      H3540   1.085       .  S
C3533      C3534   1.402       .  A
C3533      C3538   1.383       .  A
C3534      C3535   1.415       .  A
C3535      C3536   1.374       .  A
C3535     Br3542   1.929       .  S
C3536      H3541   1.083       .  S
C3536      C3537   1.397       .  A
C3537      C3538   1.400       .  A
C3538     Br3539   1.919       .  S
C3543      H3550   1.084       .  S
C3543      C3544   1.411       .  A
C3543      C3548   1.382       .  A
C3544      C3545   1.405       .  A
C3545      C3546   1.375       .  A
C3545     Br3552   1.917       .  S
C3546      H3551   1.085       .  S
C3546      C3547   1.400       .  A
C3547      C3548   1.392       .  A
C3548     Br3549   1.920       .  S
C3553      H3560   1.083       .  S
C3553      C3554   1.406       .  A
C3553      C3558   1.413       .  A
C3554      C3555   1.409       .  A
C3555      C3556   1.404       .  A
C3555     Br3562   1.917       .  S
C3556      H3561   1.084       .  S
C3556      C3557   1.404       .  A
C3557      C3558   1.416       .  A
C3558     Br3559   1.917       .  S
C3563      H3570   1.083       .  S
C3563      C3564   1.408       .  A
C3563      C3568   1.414       .  A
C3564      C3565   1.409       .  A
C3565      C3566   1.399       .  A
C3565     Br3572   1.920       .  S
C3566      H3571   1.084       .  S
C3566      C3567   1.404       .  A
C3567      C3568   1.415       .  A
C3568     Br3569   1.917       .  S
C3573      H3580   1.084       .  S
C3573      C3574   1.398       .  A
C3573      C3578   1.383   1_556  A
C3574      C3575   1.400       .  A
C3575      C3576   1.386   1_556  A
C3575     Br3582   1.921       .  S
C3576      H3581   1.084       .  S
C3576      C3577   1.399       .  A
C3577      C3578   1.403       .  A
C3578     Br3579   1.922       .  S
C3583      H3590   1.084       .  S
C3583      C3584   1.395       .  A
C3583      C3588   1.376   1_556  A
C3584      C3585   1.400       .  A
C3585      C3586   1.387   1_556  A
C3585     Br3592   1.918       .  S
C3586      H3591   1.084       .  S
C3586      C3587   1.397       .  A
C3587      C3588   1.403       .  A
C3588     Br3589   1.923       .  S
C3593      H3600   1.083       .  S
C3593      C3594   1.407       .  A
C3593      C3598   1.410       .  A
C3594      C3595   1.409       .  A
C3595      C3596   1.396       .  A
C3595     Br3602   1.919       .  S
C3596      H3601   1.084       .  S
C3596      C3597   1.402       .  A
C3597      C3598   1.414       .  A
C3598     Br3599   1.917       .  S
C3603      H3610   1.083       .  S
C3603      C3604   1.409       .  A
C3603      C3608   1.416       .  A
C3604      C3605   1.414       .  A
C3605      C3606   1.402       .  A
C3605     Br3612   1.922       .  S
C3606      H3611   1.084       .  S
C3606      C3607   1.403       .  A
C3607      C3608   1.415       .  A
C3608     Br3609   1.916       .  S
C3613      H3620   1.083       .  S
C3613      C3614   1.409       .  A
C3613      C3618   1.414       .  A
C3614      C3615   1.412       .  A
C3615      C3616   1.402       .  A
C3615     Br3622   1.920       .  S
C3616      H3621   1.084       .  S
C3616      C3617   1.404       .  A
C3617      C3618   1.413       .  A
C3618     Br3619   1.917       .  S
C3623      H3630   1.084       .  S
C3623      C3624   1.398       .  A
C3623      C3628   1.387       .  A
C3624      C3625   1.401       .  A
C3625      C3626   1.385       .  A
C3625     Br3632   1.918       .  S
C3626      H3631   1.084       .  S
C3626      C3627   1.397       .  A
C3627      C3628   1.405       .  A
C3628     Br3629   1.921       .  S
C3633      H3640   1.085       .  S
C3633      C3634   1.392       .  A
C3633      C3638   1.371       .  A
C3634      C3635   1.422       .  A
C3635      C3636   1.375       .  A
C3635     Br3642   1.929       .  S
C3636      H3641   1.085       .  S
C3636      C3637   1.381       .  A
C3637      C3638   1.406       .  A
C3638     Br3639   1.926       .  S
C3643      H3650   1.083       .  S
C3643      C3644   1.412       .  A
C3643      C3648   1.377       .  A
C3644      C3645   1.401       .  A
C3645      C3646   1.378       .  A
C3645     Br3652   1.922       .  S
C3646      H3651   1.085       .  S
C3646      C3647   1.403       .  A
C3647      C3648   1.388       .  A
C3648     Br3649   1.920       .  S
C3653      H3660   1.083       .  S
C3653      C3654   1.417       .  A
C3653      C3658   1.378       .  A
C3654      C3655   1.399       .  A
C3655      C3656   1.377       .  A
C3655     Br3662   1.922       .  S
C3656      H3661   1.083       .  S
C3656      C3657   1.404       .  A
C3657      C3658   1.386       .  A
C3658     Br3659   1.921       .  S
C3663      H3670   1.086       .  S
C3663      C3664   1.376       .  A
C3663      C3668   1.368       .  A
C3664      C3665   1.403       .  A
C3665      C3666   1.368       .  A
C3665     Br3672   1.927       .  S
C3666      H3671   1.084       .  S
C3666      C3667   1.391       .  A
C3667      C3668   1.426       .  A
C3668     Br3669   1.929       .  S
C3673      H3680   1.083       .  S
C3673      C3674   1.409       .  A
C3673      C3678   1.415       .  A
C3674      C3675   1.410       .  A
C3675      C3676   1.403       .  A
C3675     Br3682   1.920       .  S
C3676      H3681   1.084       .  S
C3676      C3677   1.408       .  A
C3677      C3678   1.418       .  A
C3678     Br3679   1.917       .  S
C3683      H3690   1.084       .  S
C3683      C3684   1.396       .  A
C3683      C3688   1.388       .  A
C3684      C3685   1.406       .  A
C3685      C3686   1.375       .  A
C3685     Br3692   1.925       .  S
C3686      H3691   1.085       .  S
C3686      C3687   1.391       .  A
C3687      C3688   1.403       .  A
C3688     Br3689   1.919       .  S
C3693      H3700   1.085       .  S
C3693      C3694   1.388       .  A
C3693      C3698   1.371       .  A
C3694      C3695   1.404       .  A
C3695      C3696   1.372       .  A
C3695     Br3702   1.924       .  S
C3696      H3701   1.085       .  S
C3696      C3697   1.389       .  A
C3697      C3698   1.408       .  A
C3698     Br3699   1.927       .  S
C3703      H3710   1.085       .  S
C3703      C3704   1.395       .  A
C3703      C3708   1.372       .  A
C3704      C3705   1.431       .  A
C3705      C3706   1.378       .  A
C3705     Br3712   1.929       .  S
C3706      H3711   1.085       .  S
C3706      C3707   1.379       .  A
C3707      C3708   1.401       .  A
C3708     Br3709   1.921       .  S
C3713      H3720   1.082       .  S
C3713      C3714   1.402       .  A
C3713      C3718   1.402       .  A
C3714      C3715   1.412       .  A
C3715      C3716   1.411       .  A
C3715     Br3722   1.917       .  S
C3716      H3721   1.083       .  S
C3716      C3717   1.406       .  A
C3717      C3718   1.411       .  A
C3718     Br3719   1.921       .  S
C3723      H3730   1.083       .  S
C3723      C3724   1.407       .  A
C3723      C3728   1.413       .  A
C3724      C3725   1.411       .  A
C3725      C3726   1.405       .  A
C3725     Br3732   1.919       .  S
C3726      H3731   1.084       .  S
C3726      C3727   1.405       .  A
C3727      C3728   1.411       .  A
C3728     Br3729   1.916       .  S
C3733      H3740   1.084       .  S
C3733      C3734   1.398       .  A
C3733      C3738   1.386   1_556  A
C3734      C3735   1.403       .  A
C3735      C3736   1.372   1_556  A
C3735     Br3742   1.924       .  S
C3736      H3741   1.084       .  S
C3736      C3737   1.393       .  A
C3737      C3738   1.401       .  A
C3738     Br3739   1.920       .  S
C3743      H3750   1.085       .  S
C3743      C3744   1.396       .  A
C3743      C3748   1.379   1_556  A
C3744      C3745   1.399       .  A
C3745      C3746   1.387   1_556  A
C3745     Br3752   1.919       .  S
C3746      H3751   1.084       .  S
C3746      C3747   1.397       .  A
C3747      C3748   1.399       .  A
C3748     Br3749   1.921       .  S
C3753      H3760   1.084       .  S
C3753      C3754   1.398       .  A
C3753      C3758   1.386   1_655  A
C3754      C3755   1.406       .  A
C3755      C3756   1.371   1_655  A
C3755     Br3762   1.927       .  S
C3756      H3761   1.084       .  S
C3756      C3757   1.395       .  A
C3757      C3758   1.401       .  A
C3758     Br3759   1.919       .  S
C3763      H3770   1.083       .  S
C3763      C3764   1.406       .  A
C3763      C3768   1.409       .  A
C3764      C3765   1.407       .  A
C3765      C3766   1.402       .  A
C3765     Br3772   1.916       .  S
C3766      H3771   1.084       .  S
C3766      C3767   1.404       .  A
C3767      C3768   1.412       .  A
C3768     Br3769   1.917       .  S
C3773      H3780   1.085       .  S
C3773      C3774   1.396       .  A
C3773      C3778   1.373   1_655  A
C3774      C3775   1.399       .  A
C3775      C3776   1.386   1_655  A
C3775     Br3782   1.918       .  S
C3776      H3781   1.084       .  S
C3776      C3777   1.398       .  A
C3777      C3778   1.399       .  A
C3778     Br3779   1.923       .  S
C3783      H3790   1.083       .  S
C3783      C3784   1.414       .  A
C3783      C3788   1.410       .  A
C3784      C3785   1.421       .  A
C3785      C3786   1.427       .  A
C3785     Br3792   1.914       .  S
C3786      H3791   1.083       .  S
C3786      C3787   1.414       .  A
C3787      C3788   1.411       .  A
C3788     Br3789   1.920       .  S
C3793      H3800   1.083       .  S
C3793      C3794   1.407       .  A
C3793      C3798   1.410       .  A
C3794      C3795   1.408       .  A
C3795      C3796   1.405       .  A
C3795     Br3802   1.918       .  S
C3796      H3801   1.084       .  S
C3796      C3797   1.405       .  A
C3797      C3798   1.412       .  A
C3798     Br3799   1.918       .  S
C3803      H3810   1.083       .  S
C3803      C3804   1.408       .  A
C3803      C3808   1.415       .  A
C3804      C3805   1.415       .  A
C3805      C3806   1.401       .  A
C3805     Br3812   1.922       .  S
C3806      H3811   1.084       .  S
C3806      C3807   1.402       .  A
C3807      C3808   1.417       .  A
C3808     Br3809   1.916       .  S
C3813      H3820   1.085       .  S
C3813      C3814   1.397       .  A
C3813      C3818   1.372       .  A
C3814      C3815   1.398       .  A
C3815      C3816   1.383       .  A
C3815     Br3822   1.918       .  S
C3816      H3821   1.084       .  S
C3816      C3817   1.397       .  A
C3817      C3818   1.398       .  A
C3818     Br3819   1.923       .  S
C3823      H3830   1.085       .  S
C3823      C3824   1.402       .  A
C3823      C3828   1.373       .  A
C3824      C3825   1.380       .  A
C3825      C3826   1.368       .  A
C3825     Br3832   1.920       .  S
C3826      H3831   1.080       .  S
C3826      C3827   1.416       .  A
C3827      C3828   1.397       .  A
C3828     Br3829   1.920       .  S
C3833      H3840   1.084       .  S
C3833      C3834   1.409       .  A
C3833      C3838   1.372       .  A
C3834      C3835   1.387       .  A
C3835      C3836   1.373       .  A
C3835     Br3842   1.921       .  S
C3836      H3841   1.084       .  S
C3836      C3837   1.409       .  A
C3837      C3838   1.387       .  A
C3838     Br3839   1.920       .  S
C3843      H3850   1.084       .  S
C3843      C3844   1.399       .  A
C3843      C3848   1.371       .  A
C3844      C3845   1.409       .  A
C3845      C3846   1.396       .  A
C3845     Br3852   1.916       .  S
C3846      H3851   1.082       .  S
C3846      C3847   1.405       .  A
C3847      C3848   1.411       .  A
C3848     Br3849   1.926       .  S
C3853      H3860   1.083       .  S
C3853      C3854   1.411       .  A
C3853      C3858   1.375       .  A
C3854      C3855   1.394       .  A
C3855      C3856   1.375       .  A
C3855     Br3862   1.921       .  S
C3856      H3861   1.084       .  S
C3856      C3857   1.403       .  A
C3857      C3858   1.387       .  A
C3858     Br3859   1.920       .  S
C3863      H3870   1.085       .  S
C3863      C3864   1.379       .  A
C3863      C3868   1.367       .  A
C3864      C3865   1.405       .  A
C3865      C3866   1.367       .  A
C3865     Br3872   1.927       .  S
C3866      H3871   1.085       .  S
C3866      C3867   1.388       .  A
C3867      C3868   1.418       .  A
C3868     Br3869   1.929       .  S
C3873      H3880   1.084       .  S
C3873      C3874   1.406       .  A
C3873      C3878   1.401       .  A
C3874      C3875   1.414       .  A
C3875      C3876   1.415       .  A
C3875     Br3882   1.917       .  S
C3876      H3881   1.083       .  S
C3876      C3877   1.409       .  A
C3877      C3878   1.409       .  A
C3878     Br3879   1.919       .  S
C3883      H3890   1.084       .  S
C3883      C3884   1.397       .  A
C3883      C3888   1.387       .  A
C3884      C3885   1.409       .  A
C3885      C3886   1.372       .  A
C3885     Br3892   1.927       .  S
C3886      H3891   1.085       .  S
C3886      C3887   1.393       .  A
C3887      C3888   1.406       .  A
C3888     Br3889   1.920       .  S
C3893      H3900   1.084       .  S
C3893      C3894   1.399       .  A
C3893      C3898   1.386       .  A
C3894      C3895   1.404       .  A
C3895      C3896   1.373       .  A
C3895     Br3902   1.925       .  S
C3896      H3901   1.084       .  S
C3896      C3897   1.395       .  A
C3897      C3898   1.402       .  A
C3898     Br3899   1.920       .  S
C3903      H3910   1.085       .  S
C3903      C3904   1.383       .  A
C3903      C3908   1.373       .  A
C3904      C3905   1.402       .  A
C3905      C3906   1.369       .  A
C3905     Br3912   1.927       .  S
C3906      H3911   1.085       .  S
C3906      C3907   1.392       .  A
C3907      C3908   1.415       .  A
C3908     Br3909   1.926       .  S
C3913      H3920   1.084       .  S
C3913      C3914   1.402       .  A
C3913      C3918   1.380       .  A
C3914      C3915   1.414       .  A
C3915      C3916   1.374       .  A
C3915     Br3922   1.930       .  S
C3916      H3921   1.084       .  S
C3916      C3917   1.399       .  A
C3917      C3918   1.401       .  A
C3918     Br3919   1.922       .  S
C3923      H3930   1.084       .  S
C3923      C3924   1.401       .  A
C3923      C3928   1.412       .  A
C3924      C3925   1.414       .  A
C3925      C3926   1.415       .  A
C3925     Br3932   1.917       .  S
C3926      H3931   1.083       .  S
C3926      C3927   1.412       .  A
C3927      C3928   1.430       .  A
C3928     Br3929   1.924       .  S
C3933      H3940   1.083       .  S
C3933      C3934   1.407       .  A
C3933      C3938   1.411       .  A
C3934      C3935   1.411       .  A
C3935      C3936   1.399       .  A
C3935     Br3942   1.921       .  S
C3936      H3941   1.084       .  S
C3936      C3937   1.403       .  A
C3937      C3938   1.409       .  A
C3938     Br3939   1.915       .  S
C3943      H3950   1.084       .  S
C3943      C3944   1.406       .  A
C3943      C3948   1.398       .  A
C3944      C3945   1.413       .  A
C3945      C3946   1.413       .  A
C3945     Br3952   1.917       .  S
C3946      H3951   1.083       .  S
C3946      C3947   1.409       .  A
C3947      C3948   1.408       .  A
C3948     Br3949   1.921       .  S
C3953      H3960   1.084       .  S
C3953      C3954   1.397       .  A
C3953      C3958   1.389   1_556  A
C3954      C3955   1.404       .  A
C3955      C3956   1.379   1_556  A
C3955     Br3962   1.923       .  S
C3956      H3961   1.084       .  S
C3956      C3957   1.393       .  A
C3957      C3958   1.402       .  A
C3958     Br3959   1.920       .  S
C3963      H3970   1.085       .  S
C3963      C3964   1.396       .  A
C3963      C3968   1.374   1_545  A
C3964      C3965   1.398       .  A
C3965      C3966   1.386   1_545  A
C3965     Br3972   1.918       .  S
C3966      H3971   1.084       .  S
C3966      C3967   1.398       .  A
C3967      C3968   1.403       .  A
C3968     Br3969   1.925       .  S
C3973      H3980   1.080       .  S
C3973      C3974   1.398       .  A
C3973      C3978   1.382   1_545  A
C3974      C3975   1.408       .  A
C3975      C3976   1.384   1_545  A
C3975     Br3982   1.923       .  S
C3976      H3981   1.083       .  S
C3976      C3977   1.399       .  A
C3977      C3978   1.398       .  A
C3978     Br3979   1.918       .  S
C3983      H3990   1.084       .  S
C3983      C3984   1.404       .  A
C3983      C3988   1.402       .  A
C3984      C3985   1.416       .  A
C3985      C3986   1.415       .  A
C3985     Br3992   1.917       .  S
C3986      H3991   1.083       .  S
C3986      C3987   1.409       .  A
C3987      C3988   1.412       .  A
C3988     Br3989   1.920       .  S
C3993      H4000   1.084       .  S
C3993      C3994   1.398       .  A
C3993      C3998   1.387   1_556  A
C3994      C3995   1.401       .  A
C3995      C3996   1.373   1_556  A
C3995     Br4002   1.924       .  S
C3996      H4001   1.085       .  S
C3996      C3997   1.394       .  A
C3997      C3998   1.399       .  A
C3998     Br3999   1.919       .  S
C4003      H4010   1.083       .  S
C4003      C4004   1.406       .  A
C4003      C4008   1.409       .  A
C4004      C4005   1.410       .  A
C4005      C4006   1.400       .  A
C4005     Br4012   1.918       .  S
C4006      H4011   1.084       .  S
C4006      C4007   1.402       .  A
C4007      C4008   1.413       .  A
C4008     Br4009   1.918       .  S
C4013      H4020   1.083       .  S
C4013      C4014   1.407       .  A
C4013      C4018   1.411       .  A
C4014      C4015   1.410       .  A
C4015      C4016   1.404       .  A
C4015     Br4022   1.920       .  S
C4016      H4021   1.084       .  S
C4016      C4017   1.405       .  A
C4017      C4018   1.410       .  A
C4018     Br4019   1.917       .  S
C4023      H4030   1.084       .  S
C4023      C4024   1.395       .  A
C4023      C4028   1.384       .  A
C4024      C4025   1.400       .  A
C4025      C4026   1.378       .  A
C4025     Br4032   1.923       .  S
C4026      H4031   1.085       .  S
C4026      C4027   1.397       .  A
C4027      C4028   1.397       .  A
C4028     Br4029   1.916       .  S
C4033      H4040   1.085       .  S
C4033      C4034   1.404       .  A
C4033      C4038   1.379       .  A
C4034      C4035   1.391       .  A
C4035      C4036   1.381       .  A
C4035     Br4042   1.920       .  S
C4036      H4041   1.084       .  S
C4036      C4037   1.411       .  A
C4037      C4038   1.399       .  A
C4038     Br4039   1.921       .  S
C4043      H4050   1.085       .  S
C4043      C4044   1.395       .  A
C4043      C4048   1.373       .  A
C4044      C4045   1.394       .  A
C4045      C4046   1.382       .  A
C4045     Br4052   1.920       .  S
C4046      H4051   1.081       .  S
C4046      C4047   1.407       .  A
C4047      C4048   1.409       .  A
C4048     Br4049   1.923       .  S
C4053      H4060   1.084       .  S
C4053      C4054   1.399       .  A
C4053      C4058   1.386       .  A
C4054      C4055   1.401       .  A
C4055      C4056   1.383       .  A
C4055     Br4062   1.920       .  S
C4056      H4061   1.084       .  S
C4056      C4057   1.399       .  A
C4057      C4058   1.406       .  A
C4058     Br4059   1.922       .  S
C4063      H4070   1.084       .  S
C4063      C4064   1.396       .  A
C4063      C4068   1.370       .  A
C4064      C4065   1.402       .  A
C4065      C4066   1.387       .  A
C4065     Br4072   1.919       .  S
C4066      H4071   1.084       .  S
C4066      C4067   1.400       .  A
C4067      C4068   1.402       .  A
C4068     Br4069   1.925       .  S
C4073      H4080   1.085       .  S
C4073      C4074   1.385       .  A
C4073      C4078   1.373       .  A
C4074      C4075   1.410       .  A
C4075      C4076   1.372       .  A
C4075     Br4082   1.927       .  S
C4076      H4081   1.085       .  S
C4076      C4077   1.386       .  A
C4077      C4078   1.412       .  A
C4078     Br4079   1.927       .  S
C4083      H4090   1.085       .  S
C4083      C4084   1.404       .  A
C4083      C4088   1.383       .  A
C4084      C4085   1.414       .  A
C4085      C4086   1.373       .  A
C4085     Br4092   1.928       .  S
C4086      H4091   1.084       .  S
C4086      C4087   1.399       .  A
C4087      C4088   1.400       .  A
C4088     Br4089   1.922       .  S
C4093      H4100   1.084       .  S
C4093      C4094   1.404       .  A
C4093      C4098   1.400       .  A
C4094      C4095   1.416       .  A
C4095      C4096   1.414       .  A
C4095     Br4102   1.918       .  S
C4096      H4101   1.083       .  S
C4096      C4097   1.407       .  A
C4097      C4098   1.411       .  A
C4098     Br4099   1.920       .  S
C4103      H4110   1.085       .  S
C4103      C4104   1.393       .  A
C4103      C4108   1.375       .  A
C4104      C4105   1.401       .  A
C4105      C4106   1.387       .  A
C4105     Br4112   1.919       .  S
C4106      H4111   1.084       .  S
C4106      C4107   1.396       .  A
C4107      C4108   1.404       .  A
C4108     Br4109   1.924       .  S
C4113      H4120   1.085       .  S
C4113      C4114   1.402       .  A
C4113      C4118   1.375       .  A
C4114      C4115   1.385       .  A
C4115      C4116   1.375       .  A
C4115     Br4122   1.921       .  S
C4116      H4121   1.083       .  S
C4116      C4117   1.414       .  A
C4117      C4118   1.398       .  A
C4118     Br4119   1.921       .  S
C4123      H4130   1.084       .  S
C4123      C4124   1.389       .  A
C4123      C4128   1.369       .  A
C4124      C4125   1.423       .  A
C4125      C4126   1.371       .  A
C4125     Br4132   1.930       .  S
C4126      H4131   1.085       .  S
C4126      C4127   1.379       .  A
C4127      C4128   1.407       .  A
C4128     Br4129   1.927       .  S
C4133      H4140   1.084       .  S
C4133      C4134   1.402       .  A
C4133      C4138   1.400       .  A
C4134      C4135   1.414       .  A
C4135      C4136   1.412       .  A
C4135     Br4142   1.917       .  S
C4136      H4141   1.083       .  S
C4136      C4137   1.407       .  A
C4137      C4138   1.413       .  A
C4138     Br4139   1.922       .  S
C4143      H4150   1.083       .  S
C4143      C4144   1.406       .  A
C4143      C4148   1.410       .  A
C4144      C4145   1.411       .  A
C4145      C4146   1.400       .  A
C4145     Br4152   1.922       .  S
C4146      H4151   1.084       .  S
C4146      C4147   1.403       .  A
C4147      C4148   1.410       .  A
C4148     Br4149   1.916       .  S
C4153      H4160   1.084       .  S
C4153      C4154   1.396       .  A
C4153      C4158   1.385   1_556  A
C4154      C4155   1.402       .  A
C4155      C4156   1.377   1_556  A
C4155     Br4162   1.923       .  S
C4156      H4161   1.085       .  S
C4156      C4157   1.393       .  A
C4157      C4158   1.399       .  A
C4158     Br4159   1.919       .  S
C4163      H4170   1.084       .  S
C4163      C4164   1.398       .  A
C4163      C4168   1.382   1_655  A
C4164      C4165   1.406       .  A
C4165      C4166   1.385   1_655  A
C4165     Br4172   1.922       .  S
C4166      H4171   1.084       .  S
C4166      C4167   1.398       .  A
C4167      C4168   1.399       .  A
C4168     Br4169   1.918       .  S
C4173      H4180   1.084       .  S
C4173      C4174   1.399       .  A
C4173      C4178   1.384   1_554  A
C4174      C4175   1.407       .  A
C4175      C4176   1.386   1_554  A
C4175     Br4182   1.921       .  S
C4176      H4181   1.082       .  S
C4176      C4177   1.401       .  A
C4177      C4178   1.404       .  A
C4178     Br4179   1.915       .  S
C4183      H4190   1.084       .  S
C4183      C4184   1.401       .  A
C4183      C4188   1.384   1_545  A
C4184      C4185   1.406       .  A
C4185      C4186   1.380   1_545  A
C4185     Br4192   1.923       .  S
C4186      H4191   1.083       .  S
C4186      C4187   1.399       .  A
C4187      C4188   1.400       .  A
C4188     Br4189   1.919       .  S
C4193      H4200   1.083       .  S
C4193      C4194   1.408       .  A
C4193      C4198   1.412       .  A
C4194      C4195   1.409       .  A
C4195      C4196   1.397       .  A
C4195     Br4202   1.918       .  S
C4196      H4201   1.084       .  S
C4196      C4197   1.404       .  A
C4197      C4198   1.413       .  A
C4198     Br4199   1.917       .  S
C4203      H4210   1.084       .  S
C4203      C4204   1.395       .  A
C4203      C4208   1.385   1_655  A
C4204      C4205   1.404       .  A
C4205      C4206   1.380   1_655  A
C4205     Br4212   1.922       .  S
C4206      H4211   1.084       .  S
C4206      C4207   1.393       .  A
C4207      C4208   1.398       .  A
C4208     Br4209   1.915       .  S
C4213      H4220   1.084       .  S
C4213      C4214   1.397       .  A
C4213      C4218   1.383   1_565  A
C4214      C4215   1.402       .  A
C4215      C4216   1.371   1_565  A
C4215     Br4222   1.925       .  S
C4216      H4221   1.084       .  S
C4216      C4217   1.395       .  A
C4217      C4218   1.400       .  A
C4218     Br4219   1.920       .  S
C4223      H4230   1.084       .  S
C4223      C4224   1.411       .  A
C4223      C4228   1.416       .  A
C4224      C4225   1.415       .  A
C4225      C4226   1.425       .  A
C4225     Br4232   1.914       .  S
C4226      H4231   1.083       .  S
C4226      C4227   1.418       .  A
C4227      C4228   1.422       .  A
C4228     Br4229   1.922       .  S
C4233      H4240   1.084       .  S
C4233      C4234   1.402       .  A
C4233      C4238   1.401       .  A
C4234      C4235   1.416       .  A
C4235      C4236   1.414       .  A
C4235     Br4242   1.916       .  S
C4236      H4241   1.083       .  S
C4236      C4237   1.407       .  A
C4237      C4238   1.413       .  A
C4238     Br4239   1.921       .  S
C4243      H4250   1.084       .  S
C4243      C4244   1.402       .  A
C4243      C4248   1.403       .  A
C4244      C4245   1.412       .  A
C4245      C4246   1.409       .  A
C4245     Br4252   1.916       .  S
C4246      H4251   1.083       .  S
C4246      C4247   1.405       .  A
C4247      C4248   1.408       .  A
C4248     Br4249   1.913       .  S
C4253      H4260   1.085       .  S
C4253      C4254   1.395       .  A
C4253      C4258   1.376       .  A
C4254      C4255   1.397       .  A
C4255      C4256   1.384       .  A
C4255     Br4262   1.918       .  S
C4256      H4261   1.084       .  S
C4256      C4257   1.395       .  A
C4257      C4258   1.400       .  A
C4258     Br4259   1.923       .  S
C4263      H4270   1.084       .  S
C4263      C4264   1.396       .  A
C4263      C4268   1.374       .  A
C4264      C4265   1.400       .  A
C4265      C4266   1.387       .  A
C4265     Br4272   1.919       .  S
C4266      H4271   1.084       .  S
C4266      C4267   1.399       .  A
C4267      C4268   1.402       .  A
C4268     Br4269   1.924       .  S
C4273      H4280   1.085       .  S
C4273      C4274   1.404       .  A
C4273      C4278   1.376       .  A
C4274      C4275   1.383       .  A
C4275      C4276   1.374       .  A
C4275     Br4282   1.921       .  S
C4276      H4281   1.083       .  S
C4276      C4277   1.416       .  A
C4277      C4278   1.397       .  A
C4278     Br4279   1.921       .  S
C4283      H4290   1.083       .  S
C4283      C4284   1.414       .  A
C4283      C4288   1.375       .  A
C4284      C4285   1.399       .  A
C4285      C4286   1.378       .  A
C4285     Br4292   1.921       .  S
C4286      H4291   1.085       .  S
C4286      C4287   1.404       .  A
C4287      C4288   1.386       .  A
C4288     Br4289   1.921       .  S
C4293      H4300   1.083       .  S
C4293      C4294   1.410       .  A
C4293      C4298   1.420       .  A
C4294      C4295   1.412       .  A
C4295      C4296   1.409       .  A
C4295     Br4302   1.919       .  S
C4296      H4301   1.083       .  S
C4296      C4297   1.410       .  A
C4297      C4298   1.418       .  A
C4298     Br4299   1.915       .  S
C4303      H4310   1.084       .  S
C4303      C4304   1.394       .  A
C4303      C4308   1.376       .  A
C4304      C4305   1.406       .  A
C4305      C4306   1.385       .  A
C4305     Br4312   1.922       .  S
C4306      H4311   1.083       .  S
C4306      C4307   1.400       .  A
C4307      C4308   1.401       .  A
C4308     Br4309   1.905       .  S
C4313      H4320   1.085       .  S
C4313      C4314   1.395       .  A
C4313      C4318   1.377       .  A
C4314      C4315   1.398       .  A
C4315      C4316   1.384       .  A
C4315     Br4322   1.918       .  S
C4316      H4321   1.084       .  S
C4316      C4317   1.395       .  A
C4317      C4318   1.401       .  A
C4318     Br4319   1.924       .  S
C4323      H4330   1.085       .  S
C4323      C4324   1.387       .  A
C4323      C4328   1.378       .  A
C4324      C4325   1.403       .  A
C4325      C4326   1.372       .  A
C4325     Br4332   1.925       .  S
C4326      H4331   1.081       .  S
C4326      C4327   1.397       .  A
C4327      C4328   1.416       .  A
C4328     Br4329   1.920       .  S
C4333      H4340   1.084       .  S
C4333      C4334   1.403       .  A
C4333      C4338   1.379       .  A
C4334      C4335   1.402       .  A
C4335      C4336   1.379       .  A
C4335     Br4342   1.910       .  S
C4336      H4341   1.084       .  S
C4336      C4337   1.397       .  A
C4337      C4338   1.405       .  A
C4338     Br4339   1.923       .  S
C4343      H4350   1.084       .  S
C4343      C4344   1.401       .  A
C4343      C4348   1.400       .  A
C4344      C4345   1.412       .  A
C4345      C4346   1.408       .  A
C4345     Br4352   1.918       .  S
C4346      H4351   1.083       .  S
C4346      C4347   1.406       .  A
C4347      C4348   1.410       .  A
C4348     Br4349   1.920       .  S
C4353      H4360   1.084       .  S
C4353      C4354   1.401       .  A
C4353      C4358   1.379       .  A
C4354      C4355   1.402       .  A
C4355      C4356   1.383       .  A
C4355     Br4362   1.921       .  S
C4356      H4361   1.084       .  S
C4356      C4357   1.398       .  A
C4357      C4358   1.401       .  A
C4358     Br4359   1.924       .  S
C4363      H4370   1.083       .  S
C4363      C4364   1.409       .  A
C4363      C4368   1.398       .  A
C4364      C4365   1.413       .  A
C4365      C4366   1.374       .  A
C4365     Br4372   1.925       .  S
C4366      H4371   1.082       .  S
C4366      C4367   1.392       .  A
C4367      C4368   1.406       .  A
C4368     Br4369   1.918       .  S
C4373      H4380   1.084       .  S
C4373      C4374   1.406       .  A
C4373      C4378   1.370       .  A
C4374      C4375   1.390       .  A
C4375      C4376   1.379       .  A
C4375     Br4382   1.919       .  S
C4376      H4381   1.084       .  S
C4376      C4377   1.409       .  A
C4377      C4378   1.388       .  A
C4378     Br4379   1.915       .  S
C4383      H4390   1.084       .  S
C4383      C4384   1.408       .  A
C4383      C4388   1.385       .  A
C4384      C4385   1.405       .  A
C4385      C4386   1.375       .  A
C4385     Br4392   1.919       .  S
C4386      H4391   1.085       .  S
C4386      C4387   1.401       .  A
C4387      C4388   1.398       .  A
C4388     Br4389   1.920       .  S
C4393      H4400   1.083       .  S
C4393      C4394   1.408       .  A
C4393      C4398   1.415       .  A
C4394      C4395   1.413       .  A
C4395      C4396   1.403       .  A
C4395     Br4402   1.921       .  S
C4396      H4401   1.084       .  S
C4396      C4397   1.403       .  A
C4397      C4398   1.413       .  A
C4398     Br4399   1.917       .  S
C4403      H4410   1.084       .  S
C4403      C4404   1.402       .  A
C4403      C4408   1.400       .  A
C4404      C4405   1.415       .  A
C4405      C4406   1.411       .  A
C4405     Br4412   1.917       .  S
C4406      H4411   1.083       .  S
C4406      C4407   1.406       .  A
C4407      C4408   1.409       .  A
C4408     Br4409   1.917       .  S
C4413      H4420   1.082       .  S
C4413      C4414   1.414       .  A
C4413      C4418   1.425       .  A
C4414      C4415   1.416       .  A
C4415      C4416   1.413       .  A
C4415     Br4422   1.921       .  S
C4416      H4421   1.083       .  S
C4416      C4417   1.410       .  A
C4417      C4418   1.419       .  A
C4418     Br4419   1.916       .  S
C4423      H4430   1.083       .  S
C4423      C4424   1.412       .  A
C4423      C4428   1.424       .  A
C4424      C4425   1.413       .  A
C4425      C4426   1.416       .  A
C4425     Br4432   1.917       .  S
C4426      H4431   1.083       .  S
C4426      C4427   1.415       .  A
C4427      C4428   1.424       .  A
C4428     Br4429   1.918       .  S
C4433      H4440   1.083       .  S
C4433      C4434   1.415       .  A
C4433      C4438   1.424       .  A
C4434      C4435   1.428       .  A
C4435      C4436   1.419       .  A
C4435     Br4442   1.920       .  S
C4436      H4441   1.083       .  S
C4436      C4437   1.406       .  A
C4437      C4438   1.417       .  A
C4438     Br4439   1.916       .  S
C4443      H4450   1.083       .  S
C4443      C4444   1.410       .  A
C4443      C4448   1.423       .  A
C4444      C4445   1.421       .  A
C4445      C4446   1.411       .  A
C4445     Br4452   1.912       .  S
C4446      H4451   1.083       .  S
C4446      C4447   1.405       .  A
C4447      C4448   1.423       .  A
C4448     Br4449   1.918       .  S
C4453      H4460   1.083       .  S
C4453      C4454   1.406       .  A
C4453      C4458   1.421       .  A
C4454      C4455   1.419       .  A
C4455      C4456   1.418       .  A
C4455     Br4462   1.916       .  S
C4456      H4461   1.083       .  S
C4456      C4457   1.411       .  A
C4457      C4458   1.428       .  A
C4458     Br4459   1.917       .  S
C4463      H4470   1.083       .  S
C4463      C4464   1.414       .  A
C4463      C4468   1.416       .  A
C4464      C4465   1.421       .  A
C4465      C4466   1.429       .  A
C4465     Br4472   1.909       .  S
C4466      H4471   1.083       .  S
C4466      C4467   1.415       .  A
C4467      C4468   1.414       .  A
C4468     Br4469   1.919       .  S
C4473      H4480   1.083       .  S
C4473      C4474   1.413       .  A
C4473      C4478   1.418       .  A
C4474      C4475   1.430       .  A
C4475      C4476   1.419       .  A
C4475     Br4482   1.921       .  S
C4476      H4481   1.083       .  S
C4476      C4477   1.405       .  A
C4477      C4478   1.416       .  A
C4478     Br4479   1.918       .  S
C4483      H4490   1.082       .  S
C4483      C4484   1.412       .  A
C4483      C4488   1.411       .  A
C4484      C4485   1.413       .  A
C4485      C4486   1.425       .  A
C4485     Br4492   1.913       .  S
C4486      H4491   1.083       .  S
C4486      C4487   1.418       .  A
C4487      C4488   1.417       .  A
C4488     Br4489   1.922       .  S
C4493      H4500   1.083       .  S
C4493      C4494   1.412       .  A
C4493      C4498   1.424       .  A
C4494      C4495   1.414       .  A
C4495      C4496   1.413       .  A
C4495     Br4502   1.919       .  S
C4496      H4501   1.083       .  S
C4496      C4497   1.413       .  A
C4497      C4498   1.422       .  A
C4498     Br4499   1.915       .  S
C4503      H4510   1.083       .  S
C4503      C4504   1.418       .  A
C4503      C4508   1.421       .  A
C4504      C4505   1.423       .  A
C4505      C4506   1.419       .  A
C4505     Br4512   1.920       .  S
C4506      H4511   1.084       .  S
C4506      C4507   1.411       .  A
C4507      C4508   1.413       .  A
C4508     Br4509   1.916       .  S
C4513      H4520   1.083       .  S
C4513      C4514   1.405       .  A
C4513      C4518   1.417       .  A
C4514      C4515   1.415       .  A
C4515      C4516   1.415       .  A
C4515     Br4522   1.919       .  S
C4516      H4521   1.083       .  S
C4516      C4517   1.412       .  A
C4517      C4518   1.427       .  A
C4518     Br4519   1.921       .  S
C4523      H4530   1.083       .  S
C4523      C4524   1.404       .  A
C4523      C4528   1.417       .  A
C4524      C4525   1.416       .  A
C4525      C4526   1.415       .  A
C4525     Br4532   1.919       .  S
C4526      H4531   1.083       .  S
C4526      C4527   1.411       .  A
C4527      C4528   1.429       .  A
C4528     Br4529   1.921       .  S
C4533      H4540   1.083       .  S
C4533      C4534   1.412       .  A
C4533      C4538   1.424       .  A
C4534      C4535   1.412       .  A
C4535      C4536   1.410       .  A
C4535     Br4542   1.916       .  S
C4536      H4541   1.083       .  S
C4536      C4537   1.414       .  A
C4537      C4538   1.424       .  A
C4538     Br4539   1.914       .  S
C4543      H4550   1.083       .  S
C4543      C4544   1.416       .  A
C4543      C4548   1.408       .  A
C4544      C4545   1.424       .  A
C4545      C4546   1.423       .  A
C4545     Br4552   1.914       .  S
C4546      H4551   1.081       .  S
C4546      C4547   1.411       .  A
C4547      C4548   1.410       .  A
C4548     Br4549   1.918       .  S
C4553      H4560   1.083       .  S
C4553      C4554   1.413       .  A
C4553      C4558   1.426       .  A
C4554      C4555   1.414       .  A
C4555      C4556   1.414       .  A
C4555     Br4562   1.919       .  S
C4556      H4561   1.083       .  S
C4556      C4557   1.413       .  A
C4557      C4558   1.422       .  A
C4558     Br4559   1.916       .  S
C4563      H4570   1.084       .  S
C4563      C4564   1.410       .  A
C4563      C4568   1.410       .  A
C4564      C4565   1.418       .  A
C4565      C4566   1.421       .  A
C4565     Br4572   1.911       .  S
C4566      H4571   1.083       .  S
C4566      C4567   1.410       .  A
C4567      C4568   1.415       .  A
C4568     Br4569   1.921       .  S
C4573      H4580   1.083       .  S
C4573      C4574   1.414       .  A
C4573      C4578   1.424       .  A
C4574      C4575   1.420       .  A
C4575      C4576   1.414       .  A
C4575     Br4582   1.921       .  S
C4576      H4581   1.083       .  S
C4576      C4577   1.407       .  A
C4577      C4578   1.418       .  A
C4578     Br4579   1.916       .  S
C4583      H4590   1.083       .  S
C4583      C4584   1.405       .  A
C4583      C4588   1.414       .  A
C4584      C4585   1.414       .  A
C4585      C4586   1.420       .  A
C4585     Br4592   1.916       .  S
C4586      H4591   1.083       .  S
C4586      C4587   1.415       .  A
C4587      C4588   1.424       .  A
C4588     Br4589   1.922       .  S
C4593      H4600   1.083       .  S
C4593      C4594   1.409       .  A
C4593      C4598   1.416       .  A
C4594      C4595   1.423       .  A
C4595      C4596   1.423       .  A
C4595     Br4602   1.918       .  S
C4596      H4601   1.083       .  S
C4596      C4597   1.410       .  A
C4597      C4598   1.420       .  A
C4598     Br4599   1.916       .  S
C4603      H4610   1.083       .  S
C4603      C4604   1.410       .  A
C4603      C4608   1.416       .  A
C4604      C4605   1.425       .  A
C4605      C4606   1.421       .  A
C4605     Br4612   1.919       .  S
C4606      H4611   1.083       .  S
C4606      C4607   1.408       .  A
C4607      C4608   1.418       .  A
C4608     Br4609   1.916       .  S
C4613      H4620   1.083       .  S
C4613      C4614   1.418       .  A
C4613      C4618   1.430       .  A
C4614      C4615   1.411       .  A
C4615      C4616   1.407       .  A
C4615     Br4622   1.907       .  S
C4616      H4621   1.081       .  S
C4616      C4617   1.412       .  A
C4617      C4618   1.420       .  A
C4618     Br4619   1.914       .  S
C4623      H4630   1.084       .  S
C4623      C4624   1.402       .  A
C4623      C4628   1.412       .  A
C4624      C4625   1.418       .  A
C4625      C4626   1.421       .  A
C4625     Br4632   1.899       .  S
C4626      H4631   1.083       .  S
C4626      C4627   1.409       .  A
C4627      C4628   1.428       .  A
C4628     Br4629   1.920       .  S
C4633      H4640   1.082       .  S
C4633      C4634   1.411       .  A
C4633      C4638   1.421       .  A
C4634      C4635   1.412       .  A
C4635      C4636   1.412       .  A
C4635     Br4642   1.919       .  S
C4636      H4641   1.083       .  S
C4636      C4637   1.412       .  A
C4637      C4638   1.420       .  A
C4638     Br4639   1.917       .  S
C4643      H4650   1.082       .  S
C4643      C4644   1.418       .  A
C4643      C4648   1.421       .  A
C4644      C4645   1.422       .  A
C4645      C4646   1.419       .  A
C4645     Br4652   1.920       .  S
C4646      H4651   1.084       .  S
C4646      C4647   1.412       .  A
C4647      C4648   1.413       .  A
C4648     Br4649   1.915       .  S
C4653      H4660   1.083       .  S
C4653      C4654   1.415       .  A
C4653      C4658   1.422       .  A
C4654      C4655   1.419       .  A
C4655      C4656   1.418       .  A
C4655     Br4662   1.919       .  S
C4656      H4661   1.084       .  S
C4656      C4657   1.412       .  A
C4657      C4658   1.416       .  A
C4658     Br4659   1.916       .  S
C4663      H4670   1.083       .  S
C4663      C4664   1.414       .  A
C4663      C4668   1.421       .  A
C4664      C4665   1.425       .  A
C4665      C4666   1.412       .  A
C4665     Br4672   1.922       .  S
C4666      H4671   1.084       .  S
C4666      C4667   1.403       .  A
C4667      C4668   1.415       .  A
C4668     Br4669   1.916       .  S
C4673      H4680   1.079       .  S
C4673      C4674   1.411       .  A
C4673      C4678   1.424       .  A
C4674      C4675   1.410       .  A
C4675      C4676   1.411       .  A
C4675     Br4682   1.917       .  S
C4676      H4681   1.083       .  S
C4676      C4677   1.417       .  A
C4677      C4678   1.423       .  A
C4678     Br4679   1.913       .  S
C4683      H4690   1.083       .  S
C4683      C4684   1.409       .  A
C4683      C4688   1.410       .  A
C4684      C4685   1.418       .  A
C4685      C4686   1.422       .  A
C4685     Br4692   1.911       .  S
C4686      H4691   1.083       .  S
C4686      C4687   1.411       .  A
C4687      C4688   1.416       .  A
C4688     Br4689   1.920       .  S
C4693      H4700   1.080       .  S
C4693      C4694   1.409       .  A
C4693      C4698   1.421       .  A
C4694      C4695   1.414       .  A
C4695      C4696   1.416       .  A
C4695     Br4702   1.918       .  S
C4696      H4701   1.083       .  S
C4696      C4697   1.414       .  A
C4697      C4698   1.421       .  A
C4698     Br4699   1.912       .  S
C4703      H4710   1.081       .  S
C4703      C4704   1.413       .  A
C4703      C4708   1.423       .  A
C4704      C4705   1.413       .  A
C4705      C4706   1.406       .  A
C4705     Br4712   1.922       .  S
C4706      H4711   1.084       .  S
C4706      C4707   1.409       .  A
C4707      C4708   1.416       .  A
C4708     Br4709   1.916       .  S
C4713      H4720   1.083       .  S
C4713      C4714   1.418       .  A
C4713      C4718   1.421       .  A
C4714      C4715   1.424       .  A
C4715      C4716   1.416       .  A
C4715     Br4722   1.922       .  S
C4716      H4721   1.083       .  S
C4716      C4717   1.409       .  A
C4717      C4718   1.412       .  A
C4718     Br4719   1.915       .  S
C4723      H4730   1.083       .  S
C4723      C4724   1.418       .  A
C4723      C4728   1.423       .  A
C4724      C4725   1.423       .  A
C4725      C4726   1.419       .  A
C4725     Br4732   1.918       .  S
C4726      H4731   1.084       .  S
C4726      C4727   1.411       .  A
C4727      C4728   1.414       .  A
C4728     Br4729   1.915       .  S
C4733      H4740   1.084       .  S
C4733      C4734   1.411       .  A
C4733      C4738   1.418       .  A
C4734      C4735   1.410       .  A
C4735      C4736   1.417       .  A
C4735     Br4742   1.916       .  S
C4736      H4741   1.083       .  S
C4736      C4737   1.418       .  A
C4737      C4738   1.422       .  A
C4738     Br4739   1.920       .  S
C4743      H4750   1.083       .  S
C4743      C4744   1.412       .  A
C4743      C4748   1.415       .  A
C4744      C4745   1.420       .  A
C4745      C4746   1.426       .  A
C4745     Br4752   1.914       .  S
C4746      H4751   1.083       .  S
C4746      C4747   1.413       .  A
C4747      C4748   1.416       .  A
C4748     Br4749   1.918       .  S
C4753      H4760   1.083       .  S
C4753      C4754   1.410       .  A
C4753      C4758   1.421       .  A
C4754      C4755   1.417       .  A
C4755      C4756   1.410       .  A
C4755     Br4762   1.915       .  S
C4756      H4761   1.075       .  S
C4756      C4757   1.404       .  A
C4757      C4758   1.422       .  A
C4758     Br4759   1.915       .  S
C4763      H4770   1.083       .  S
C4763      C4764   1.411       .  A
C4763      C4768   1.423       .  A
C4764      C4765   1.410       .  A
C4765      C4766   1.407       .  A
C4765     Br4772   1.910       .  S
C4766      H4771   1.083       .  S
C4766      C4767   1.412       .  A
C4767      C4768   1.423       .  A
C4768     Br4769   1.914       .  S
C4773      H4780   1.083       .  S
C4773      C4774   1.410       .  A
C4773      C4778   1.414       .  A
C4774      C4775   1.428       .  A
C4775      C4776   1.418       .  A
C4775     Br4782   1.918       .  S
C4776      H4781   1.083       .  S
C4776      C4777   1.404       .  A
C4777      C4778   1.419       .  A
C4778     Br4779   1.919       .  S
C4783      H4790   1.083       .  S
C4783      C4784   1.407       .  A
C4783      C4788   1.413       .  A
C4784      C4785   1.424       .  A
C4785      C4786   1.424       .  A
C4785     Br4792   1.918       .  S
C4786      H4791   1.083       .  S
C4786      C4787   1.410       .  A
C4787      C4788   1.421       .  A
C4788     Br4789   1.916       .  S
C4793      H4800   1.083       .  S
C4793      C4794   1.411       .  A
C4793      C4798   1.416       .  A
C4794      C4795   1.429       .  A
C4795      C4796   1.418       .  A
C4795     Br4802   1.919       .  S
C4796      H4801   1.083       .  S
C4796      C4797   1.404       .  A
C4797      C4798   1.417       .  A
C4798     Br4799   1.919       .  S
C4803      H4810   1.083       .  S
C4803      C4804   1.410       .  A
C4803      C4808   1.413       .  A
C4804      C4805   1.421       .  A
C4805      C4806   1.424       .  A
C4805     Br4812   1.916       .  S
C4806      H4811   1.083       .  S
C4806      C4807   1.412       .  A
C4807      C4808   1.416       .  A
C4808     Br4809   1.919       .  S
C4813      H4820   1.083       .  S
C4813      C4814   1.416       .  A
C4813      C4818   1.424       .  A
C4814      C4815   1.430       .  A
C4815      C4816   1.419       .  A
C4815     Br4822   1.922       .  S
C4816      H4821   1.083       .  S
C4816      C4817   1.405       .  A
C4817      C4818   1.416       .  A
C4818     Br4819   1.916       .  S
C4823      H4830   1.083       .  S
C4823      C4824   1.416       .  A
C4823      C4828   1.427       .  A
C4824      C4825   1.438       .  A
C4825      C4826   1.409       .  A
C4825     Br4832   1.916       .  S
C4826      H4831   1.085       .  S
C4826      C4827   1.395       .  A
C4827      C4828   1.420       .  A
C4828     Br4829   1.911       .  S
C4833      H4840   1.080       .  S
C4833      C4834   1.412       .  A
C4833      C4838   1.405       .  A
C4834      C4835   1.423       .  A
C4835      C4836   1.432       .  A
C4835     Br4842   1.915       .  S
C4836      H4841   1.083       .  S
C4836      C4837   1.417       .  A
C4837      C4838   1.409       .  A
C4838     Br4839   1.907       .  S
C4843      H4850   1.083       .  S
C4843      C4844   1.414       .  A
C4843      C4848   1.412       .  A
C4844      C4845   1.424       .  A
C4845      C4846   1.419       .  A
C4845     Br4852   1.917       .  S
C4846      H4851   1.083       .  S
C4846      C4847   1.408       .  A
C4847      C4848   1.410       .  A
C4848     Br4849   1.918       .  S
C4853      H4860   1.083       .  S
C4853      C4854   1.416       .  A
C4853      C4858   1.426       .  A
C4854      C4855   1.426       .  A
C4855      C4856   1.416       .  A
C4855     Br4862   1.922       .  S
C4856      H4861   1.083       .  S
C4856      C4857   1.406       .  A
C4857      C4858   1.417       .  A
C4858     Br4859   1.916       .  S
C4863      H4870   1.076       .  S
C4863      C4864   1.411       .  A
C4863      C4868   1.424       .  A
C4864      C4865   1.412       .  A
C4865      C4866   1.412       .  A
C4865     Br4872   1.916       .  S
C4866      H4871   1.083       .  S
C4866      C4867   1.414       .  A
C4867      C4868   1.420       .  A
C4868     Br4869   1.915       .  S
C4873      H4880   1.085       .  S
C4873      C4874   1.396       .  A
C4873      C4878   1.407       .  A
C4874      C4875   1.418       .  A
C4875      C4876   1.424       .  A
C4875     Br4882   1.910       .  S
C4876      H4881   1.083       .  S
C4876      C4877   1.413       .  A
C4877      C4878   1.430       .  A
C4878     Br4879   1.908       .  S
C4883      H4890   1.083       .  S
C4883      C4884   1.408       .  A
C4883      C4888   1.412       .  A
C4884      C4885   1.418       .  A
C4885      C4886   1.426       .  A
C4885     Br4892   1.916       .  S
C4886      H4891   1.083       .  S
C4886      C4887   1.415       .  A
C4887      C4888   1.416       .  A
C4888     Br4889   1.916       .  S
C4893      H4900   1.083       .  S
C4893      C4894   1.406       .  A
C4893      C4898   1.419       .  A
C4894      C4895   1.416       .  A
C4895      C4896   1.424       .  A
C4895     Br4902   1.916       .  S
C4896      H4901   1.083       .  S
C4896      C4897   1.416       .  A
C4897      C4898   1.428       .  A
C4898     Br4899   1.919       .  S
C4903      H4910   1.082       .  S
C4903      C4904   1.413       .  A
C4903      C4908   1.422       .  A
C4904      C4905   1.418       .  A
C4905      C4906   1.408       .  A
C4905     Br4912   1.922       .  S
C4906      H4911   1.084       .  S
C4906      C4907   1.405       .  A
C4907      C4908   1.416       .  A
C4908     Br4909   1.916       .  S
C4913      H4920   1.083       .  S
C4913      C4914   1.412       .  A
C4913      C4918   1.415       .  A
C4914      C4915   1.427       .  A
C4915      C4916   1.416       .  A
C4915     Br4922   1.922       .  S
C4916      H4921   1.083       .  S
C4916      C4917   1.404       .  A
C4917      C4918   1.414       .  A
C4918     Br4919   1.914       .  S
C4923      H4930   1.083       .  S
C4923      C4924   1.412       .  A
C4923      C4928   1.412       .  A
C4924      C4925   1.418       .  A
C4925      C4926   1.418       .  A
C4925     Br4932   1.913       .  S
C4926      H4931   1.081       .  S
C4926      C4927   1.408       .  A
C4927      C4928   1.412       .  A
C4928     Br4929   1.919       .  S
C4933      H4940   1.082       .  S
C4933      C4934   1.410       .  A
C4933      C4938   1.411       .  A
C4934      C4935   1.414       .  A
C4935      C4936   1.422       .  A
C4935     Br4942   1.915       .  S
C4936      H4941   1.083       .  S
C4936      C4937   1.417       .  A
C4937      C4938   1.418       .  A
C4938     Br4939   1.921       .  S
C4943      H4950   1.083       .  S
C4943      C4944   1.405       .  A
C4943      C4948   1.420       .  A
C4944      C4945   1.413       .  A
C4945      C4946   1.419       .  A
C4945     Br4952   1.916       .  S
C4946      H4951   1.082       .  S
C4946      C4947   1.415       .  A
C4947      C4948   1.430       .  A
C4948     Br4949   1.922       .  S
C4953      H4960   1.083       .  S
C4953      C4954   1.414       .  A
C4953      C4958   1.426       .  A
C4954      C4955   1.412       .  A
C4955      C4956   1.406       .  A
C4955     Br4962   1.918       .  S
C4956      H4961   1.084       .  S
C4956      C4957   1.410       .  A
C4957      C4958   1.418       .  A
C4958     Br4959   1.915       .  S
C4963      H4970   1.083       .  S
C4963      C4964   1.417       .  A
C4963      C4968   1.416       .  A
C4964      C4965   1.422       .  A
C4965      C4966   1.416       .  A
C4965     Br4972   1.917       .  S
C4966      H4971   1.084       .  S
C4966      C4967   1.408       .  A
C4967      C4968   1.410       .  A
C4968     Br4969   1.916       .  S
C4973      H4980   1.083       .  S
C4973      C4974   1.411       .  A
C4973      C4978   1.411       .  A
C4974      C4975   1.417       .  A
C4975      C4976   1.421       .  A
C4975     Br4982   1.907       .  S
C4976      H4981   1.081       .  S
C4976      C4977   1.410       .  A
C4977      C4978   1.413       .  A
C4978     Br4979   1.918       .  S
C4983      H4990   1.083       .  S
C4983      C4984   1.410       .  A
C4983      C4988   1.409       .  A
C4984      C4985   1.414       .  A
C4985      C4986   1.420       .  A
C4985     Br4992   1.916       .  S
C4986      H4991   1.077       .  S
C4986      C4987   1.411       .  A
C4987      C4988   1.413       .  A
C4988     Br4989   1.920       .  S
C4993      H5000   1.083       .  S
C4993      C4994   1.414       .  A
C4993      C4998   1.421       .  A
C4994      C4995   1.424       .  A
C4995      C4996   1.416       .  A
C4995     Br5002   1.921       .  S
C4996      H5001   1.083       .  S
C4996      C4997   1.407       .  A
C4997      C4998   1.415       .  A
C4998     Br4999   1.915       .  S
C5003      H5010   1.083       .  S
C5003      C5004   1.414       .  A
C5003      C5008   1.410       .  A
C5004      C5005   1.422       .  A
C5005      C5006   1.418       .  A
C5005     Br5012   1.918       .  S
C5006      H5011   1.083       .  S
C5006      C5007   1.408       .  A
C5007      C5008   1.409       .  A
C5008     Br5009   1.918       .  S
C5013      H5020   1.084       .  S
C5013      C5014   1.408       .  A
C5013      C5018   1.416       .  A
C5014      C5015   1.412       .  A
C5015      C5016   1.421       .  A
C5015     Br5022   1.915       .  S
C5016      H5021   1.083       .  S
C5016      C5017   1.419       .  A
C5017      C5018   1.422       .  A
C5018     Br5019   1.910       .  S
C5023      H5030   1.077       .  S
C5023      C5024   1.401       .  A
C5023      C5028   1.413       .  A
C5024      C5025   1.422       .  A
C5025      C5026   1.423       .  A
C5025     Br5032   1.899       .  S
C5026      H5031   1.083       .  S
C5026      C5027   1.409       .  A
C5027      C5028   1.429       .  A
C5028     Br5029   1.924       .  S
C5033      H5040   1.083       .  S
C5033      C5034   1.412       .  A
C5033      C5038   1.425       .  A
C5034      C5035   1.411       .  A
C5035      C5036   1.407       .  A
C5035     Br5042   1.919       .  S
C5036      H5041   1.083       .  S
C5036      C5037   1.412       .  A
C5037      C5038   1.421       .  A
C5038     Br5039   1.915       .  S
C5043      H5050   1.083       .  S
C5043      C5044   1.408       .  A
C5043      C5048   1.416       .  A
C5044      C5045   1.414       .  A
C5045      C5046   1.420       .  A
C5045     Br5052   1.909       .  S
C5046      H5051   1.082       .  S
C5046      C5047   1.411       .  A
C5047      C5048   1.422       .  A
C5048     Br5049   1.921       .  S
C5053      H5060   1.083       .  S
C5053      C5054   1.411       .  A
C5053      C5058   1.413       .  A
C5054      C5055   1.420       .  A
C5055      C5056   1.425       .  A
C5055     Br5062   1.915       .  S
C5056      H5061   1.083       .  S
C5056      C5057   1.412       .  A
C5057      C5058   1.415       .  A
C5058     Br5059   1.919       .  S
C5063      H5070   1.083       .  S
C5063      C5064   1.417       .  A
C5063      C5068   1.423       .  A
C5064      C5065   1.418       .  A
C5065      C5066   1.412       .  A
C5065     Br5072   1.921       .  S
C5066      H5071   1.081       .  S
C5066      C5067   1.410       .  A
C5067      C5068   1.416       .  A
C5068     Br5069   1.915       .  S
C5073      H5080   1.079       .  S
C5073      C5074   1.404       .  A
C5073      C5078   1.411       .  A
C5074      C5075   1.420       .  A
C5075      C5076   1.421       .  A
C5075     Br5082   1.916       .  S
C5076      H5081   1.083       .  S
C5076      C5077   1.411       .  A
C5077      C5078   1.420       .  A
C5078     Br5079   1.916       .  S
C5083      H5090   1.083       .  S
C5083      C5084   1.412       .  A
C5083      C5088   1.426       .  A
C5084      C5085   1.412       .  A
C5085      C5086   1.410       .  A
C5085     Br5092   1.913       .  S
C5086      H5091   1.083       .  S
C5086      C5087   1.414       .  A
C5087      C5088   1.426       .  A
C5088     Br5089   1.914       .  S
C5093      H5100   1.083       .  S
C5093      C5094   1.411       .  A
C5093      C5098   1.421       .  A
C5094      C5095   1.412       .  A
C5095      C5096   1.411       .  A
C5095     Br5102   1.919       .  S
C5096      H5101   1.083       .  S
C5096      C5097   1.412       .  A
C5097      C5098   1.420       .  A
C5098     Br5099   1.915       .  S
C5103      H5110   1.083       .  S
C5103      C5104   1.413       .  A
C5103      C5108   1.424       .  A
C5104      C5105   1.423       .  A
C5105      C5106   1.416       .  A
C5105     Br5112   1.921       .  S
C5106      H5111   1.083       .  S
C5106      C5107   1.408       .  A
C5107      C5108   1.418       .  A
C5108     Br5109   1.910       .  S
C5113      H5120   1.083       .  S
C5113      C5114   1.411       .  A
C5113      C5118   1.414       .  A
C5114      C5115   1.429       .  A
C5115      C5116   1.417       .  A
C5115     Br5122   1.922       .  S
C5116      H5121   1.083       .  S
C5116      C5117   1.404       .  A
C5117      C5118   1.415       .  A
C5118     Br5119   1.919       .  S
C5123      H5130   1.083       .  S
C5123      C5124   1.413       .  A
C5123      C5128   1.417       .  A
C5124      C5125   1.428       .  A
C5125      C5126   1.418       .  A
C5125     Br5132   1.921       .  S
C5126      H5131   1.083       .  S
C5126      C5127   1.405       .  A
C5127      C5128   1.414       .  A
C5128     Br5129   1.913       .  S
C5133      H5140   1.083       .  S
C5133      C5134   1.415       .  A
C5133      C5138   1.417       .  A
C5134      C5135   1.421       .  A
C5135      C5136   1.422       .  A
C5135     Br5142   1.916       .  S
C5136      H5141   1.081       .  S
C5136      C5137   1.410       .  A
C5137      C5138   1.413       .  A
C5138     Br5139   1.917       .  S
C5143      H5150   1.084       .  S
C5143      C5144   1.402       .  A
C5143      C5148   1.412       .  A
C5144      C5145   1.420       .  A
C5145      C5146   1.416       .  A
C5145     Br5152   1.891       .  S
C5146      H5151   1.083       .  S
C5146      C5147   1.404       .  A
C5147      C5148   1.430       .  A
C5148     Br5149   1.920       .  S
C5153      H5160   1.082       .  S
C5153      C5154   1.417       .  A
C5153      C5158   1.426       .  A
C5154      C5155   1.431       .  A
C5155      C5156   1.417       .  A
C5155     Br5162   1.916       .  S
C5156      H5161   1.084       .  S
C5156      C5157   1.403       .  A
C5157      C5158   1.417       .  A
C5158     Br5159   1.916       .  S
C5163      H5170   1.083       .  S
C5163      C5164   1.414       .  A
C5163      C5168   1.427       .  A
C5164      C5165   1.417       .  A
C5165      C5166   1.414       .  A
C5165     Br5172   1.920       .  S
C5166      H5171   1.083       .  S
C5166      C5167   1.411       .  A
C5167      C5168   1.421       .  A
C5168     Br5169   1.914       .  S
C5173      H5180   1.083       .  S
C5173      C5174   1.405       .  A
C5173      C5178   1.417       .  A
C5174      C5175   1.418       .  A
C5175      C5176   1.415       .  A
C5175     Br5182   1.918       .  S
C5176      H5181   1.083       .  S
C5176      C5177   1.411       .  A
C5177      C5178   1.426       .  A
C5178     Br5179   1.916       .  S
C5183      H5190   1.084       .  S
C5183      C5184   1.406       .  A
C5183      C5188   1.413       .  A
C5184      C5185   1.419       .  A
C5185      C5186   1.421       .  A
C5185     Br5192   1.917       .  S
C5186      H5191   1.083       .  S
C5186      C5187   1.412       .  A
C5187      C5188   1.423       .  A
C5188     Br5189   1.916       .  S
C5193      H5200   1.084       .  S
C5193      C5194   1.411       .  A
C5193      C5198   1.413       .  A
C5194      C5195   1.414       .  A
C5195      C5196   1.419       .  A
C5195     Br5202   1.915       .  S
C5196      H5201   1.078       .  S
C5196      C5197   1.412       .  A
C5197      C5198   1.416       .  A
C5198     Br5199   1.918       .  S
C5203      H5210   1.083       .  S
C5203      C5204   1.416       .  A
C5203      C5208   1.417       .  A
C5204      C5205   1.427       .  A
C5205      C5206   1.423       .  A
C5205     Br5212   1.919       .  S
C5206      H5211   1.083       .  S
C5206      C5207   1.410       .  A
C5207      C5208   1.413       .  A
C5208     Br5209   1.917       .  S
C5213      H5220   1.083       .  S
C5213      C5214   1.413       .  A
C5213      C5218   1.426       .  A
C5214      C5215   1.413       .  A
C5215      C5216   1.418       .  A
C5215     Br5222   1.917       .  S
C5216      H5221   1.083       .  S
C5216      C5217   1.416       .  A
C5217      C5218   1.424       .  A
C5218     Br5219   1.917       .  S
C5223      H5230   1.083       .  S
C5223      C5224   1.405       .  A
C5223      C5228   1.417       .  A
C5224      C5225   1.416       .  A
C5225      C5226   1.414       .  A
C5225     Br5232   1.919       .  S
C5226      H5231   1.083       .  S
C5226      C5227   1.410       .  A
C5227      C5228   1.427       .  A
C5228     Br5229   1.920       .  S
C5233      H5240   1.083       .  S
C5233      C5234   1.412       .  A
C5233      C5238   1.415       .  A
C5234      C5235   1.427       .  A
C5235      C5236   1.413       .  A
C5235     Br5242   1.923       .  S
C5236      H5241   1.084       .  S
C5236      C5237   1.402       .  A
C5237      C5238   1.413       .  A
C5238     Br5239   1.917       .  S
C5243      H5250   1.083       .  S
C5243      C5244   1.415       .  A
C5243      C5248   1.421       .  A
C5244      C5245   1.419       .  A
C5245      C5246   1.417       .  A
C5245     Br5252   1.920       .  S
C5246      H5251   1.081       .  S
C5246      C5247   1.410       .  A
C5247      C5248   1.415       .  A
C5248     Br5249   1.916       .  S
C5253      H5260   1.083       .  S
C5253      C5254   1.411       .  A
C5253      C5258   1.409       .  A
C5254      C5255   1.420       .  A
C5255      C5256   1.426       .  A
C5255     Br5262   1.916       .  S
C5256      H5261   1.082       .  S
C5256      C5257   1.414       .  A
C5257      C5258   1.412       .  A
C5258     Br5259   1.918       .  S
C5263      H5270   1.083       .  S
C5263      C5264   1.410       .  A
C5263      C5268   1.420       .  A
C5264      C5265   1.410       .  A
C5265      C5266   1.411       .  A
C5265     Br5272   1.918       .  S
C5266      H5271   1.083       .  S
C5266      C5267   1.413       .  A
C5267      C5268   1.420       .  A
C5268     Br5269   1.917       .  S
C5273      H5280   1.083       .  S
C5273      C5274   1.415       .  A
C5273      C5278   1.422       .  A
C5274      C5275   1.427       .  A
C5275      C5276   1.415       .  A
C5275     Br5282   1.922       .  S
C5276      H5281   1.083       .  S
C5276      C5277   1.404       .  A
C5277      C5278   1.415       .  A
C5278     Br5279   1.916       .  S
C5283      H5290   1.083       .  S
C5283      C5284   1.412       .  A
C5283      C5288   1.417       .  A
C5284      C5285   1.430       .  A
C5285      C5286   1.417       .  A
C5285     Br5292   1.923       .  S
C5286      H5291   1.083       .  S
C5286      C5287   1.404       .  A
C5287      C5288   1.416       .  A
C5288     Br5289   1.916       .  S
