geometry optimzed in LAMMPS
_audit_creation_date              2020-11-30 
_audit_creation_method            'lammps2cif' 
_symmetry_space_group_name_H-M    'P1' 
_symmetry_Int_Tables_number       1 
_symmetry_cell_setting            triclinic 
loop_ 
_symmetry_equiv_pos_as_xyz 
  x,y,z 
_cell_length_a                    28.01017353730307 
_cell_length_b                    28.017484558199296 
_cell_length_c                    28.020995272058386 
_cell_angle_alpha                 89.94308972617202 
_cell_angle_beta                  90.10178325509038 
_cell_angle_gamma                 89.95054059985344 
loop_ 
_atom_site_label 
_atom_site_type_symbol 
_atom_site_fract_x 
_atom_site_fract_y 
_atom_site_fract_z 
_atom_site_charge 
O1          O  0.50844156  0.46261975  0.58309039    -0.88960
C2          C  0.52079823  0.40105350  0.45276770     0.87070
Mg3        Mg  0.44624231  0.49950543  0.60614774     1.58150
O4          O  0.58443075  0.50806268  0.46410472    -0.88690
O5          O  0.58424029  0.47961836  0.57348695    -0.76020
C6          C  0.38996211  0.64041420  0.42173952     0.92120
O7          O  0.42737205  0.41575442  0.51758509    -0.75840
O8          O  0.36946090  0.61853416  0.45594360    -0.83340
Mg9        Mg  0.49848265  0.39346538  0.55159858     1.57960
C10         C  0.57927784  0.61025329  0.36041488     0.92040
O11         O  0.56592522  0.36314280  0.58659703    -0.81610
H12         H  0.63394910  0.54681861  0.49777614    -0.06950
C13         C  0.45320387  0.51966496  0.40223344     0.86980
O14         O  0.47983567  0.57144698  0.58549672    -0.76120
O15         O  0.53696632  0.41647960  0.49079869    -0.88880
O16         O  0.58774914  0.56567478  0.36390991    -0.81690
C17         C  0.64126081  0.42073858  0.38975348     0.92160
C18         C  0.61060480  0.35964302  0.57909610     0.92010
Mg19       Mg  0.50263777  0.60550475  0.44740951     1.57950
O20         O  0.43440719  0.63583870  0.41311072    -0.81610
O21         O  0.57399447  0.58376092  0.48086763    -0.75850
O22         O  0.63781068  0.41244673  0.43437557    -0.81690
O23         O  0.45558641  0.36719635  0.61342330    -0.83400
O24         O  0.36442464  0.58810060  0.56914846    -0.81720
C25         C  0.59924245  0.54611387  0.48083445     0.86440
O26         O  0.46433539  0.58293219  0.50958873    -0.88870
O27         O  0.49169715  0.53553677  0.41705125    -0.88970
O28         O  0.41538262  0.52093367  0.42723135    -0.76030
Mg29       Mg  0.60684074  0.44629508  0.50243096     1.57970
O30         O  0.61780211  0.45393006  0.36918942    -0.83400
H31         H  0.54666030  0.49650905  0.63288796    -0.07130
O32         O  0.41569815  0.49093380  0.53608288    -0.88670
H33         H  0.36735378  0.45249881  0.50038713    -0.06950
H34         H  0.49799304  0.63157479  0.54945466    -0.07130
C35         C  0.40170877  0.45315520  0.51803561     0.86420
C36         C  0.54632471  0.47952252  0.59825561     0.87010
C37         C  0.48079478  0.59706645  0.54805407     0.87050
H38         H  0.45207548  0.50272404  0.36759546    -0.07110
O39         O  0.52063647  0.42599108  0.41498098    -0.76130
Mg40       Mg  0.39373038  0.55405493  0.49906732     1.58000
H41         H  0.50436278  0.36615119  0.45222618    -0.07120
C42         C  0.42126258  0.38540352  0.63666928     0.92040
O43         O  0.38331654  0.54188926  0.63158683    -0.83360
C44         C  0.36155966  0.57739314  0.61342950     0.92100
O45         O  0.63153733  0.38267179  0.54600256    -0.83350
Mg46       Mg  0.55389330  0.49737828  0.39407590     1.58180
O47         O  0.41149166  0.42990311  0.63517310    -0.81680
O48         O  0.54594650  0.63060229  0.38365480    -0.83380
O49         O  0.97401799  0.50421108  0.58658399    -0.88960
C50         C  0.89609814  0.48722328  0.46478768     0.87070
Mg51       Mg  0.01779607  0.56604038  0.59778402     1.58150
O52         O  0.99654009  0.41339972  0.47363649    -0.88690
O53         O  0.97874619  0.42608317  0.58331104    -0.76020
C54         C  0.13957863  0.58753388  0.39691260     0.92120
O55         O  0.92483136  0.58381604  0.52137238    -0.75840
O56         O  0.12667500  0.60975286  0.43413829    -0.83340
Mg57       Mg  0.90249664  0.51763662  0.56496498     1.57960
C58         C  0.08769302  0.39750235  0.35955565     0.92040
O59         O  0.87372067  0.45513290  0.61172733    -0.81610
H60         H  0.03482769  0.36408361  0.50845712    -0.06950
C61         C  0.01137318  0.53487078  0.39595121     0.86980
O62         O  0.08364172  0.52237089  0.57433473    -0.76120
O63         O  0.91345531  0.47387241  0.50319975    -0.88880
O64         O  0.04525169  0.38835604  0.37310950    -0.81690
C65         C  0.89741145  0.35859990  0.41264567     0.92160
C66         C  0.85987751  0.41275233  0.60280885     0.92010
Mg67       Mg  0.09700624  0.48286082  0.43471332     1.57950
O68         O  0.12606259  0.54506450  0.38809334    -0.81610
O69         O  0.07457846  0.41671499  0.47840011    -0.75850
O70         O  0.88846502  0.37268873  0.45495279    -0.81690
O71         O  0.89066275  0.56550519  0.62779999    -0.83400
O72         O  0.11059163  0.62561175  0.54395087    -0.81720
C73         C  0.03497622  0.39644435  0.48739921     0.86440
O74         O  0.08542343  0.52642858  0.49618224    -0.88870
O75         O  0.02556993  0.49654606  0.41286950    -0.88970
O76         O  0.01997131  0.57463002  0.41616626    -0.76030
Mg77       Mg  0.93501520  0.40254909  0.51736634     1.57970
O78         O  0.93489354  0.37105603  0.39051511    -0.83400
H79         H  0.00908016  0.46594073  0.63574745    -0.07130
O80         O  0.00289058  0.58735105  0.52628960    -0.88670
H81         H  0.96448242  0.63670620  0.49166243    -0.06950
H82         H  0.13556405  0.49208708  0.53385578    -0.07130
C83         C  0.96439805  0.60426320  0.51259385     0.86420
C84         C  0.98786772  0.46575811  0.60346901     0.87010
C85         C  0.10314283  0.51305474  0.53442538     0.87050
H86         H  0.99017732  0.53446669  0.36366463    -0.07110
O87         O  0.91600277  0.47787810  0.42507164    -0.76130
Mg88       Mg  0.06387773  0.59776910  0.48200366     1.58000
H89         H  0.86362956  0.50812547  0.46502860    -0.07120
C90         C  0.91260034  0.60300551  0.64059637     0.92040
O91         O  0.06711918  0.62895391  0.61035782    -0.83360
C92         C  0.10471209  0.63875915  0.58700305     0.92100
O93         O  0.87212352  0.39073947  0.56520996    -0.83350
Mg94       Mg  0.98234383  0.43450979  0.40216763     1.58180
O95         O  0.95512100  0.61216624  0.62724457    -0.81680
O96         O  0.10947807  0.43516932  0.37200658    -0.83380
O97         O  0.46418658  0.41669352  0.99035551    -0.88960
C98         C  0.40172158  0.54666207  0.98138298     0.87070
Mg99       Mg  0.50233424  0.39419950  0.05278296     1.58150
O100        O  0.50855908  0.53708248  0.91685496    -0.88690
O101        O  0.48007674  0.42823626  0.91458014    -0.76020
C102        C  0.64023219  0.57930242  0.11080585     0.92120
O103        O  0.41497651  0.47889252  0.07236382    -0.75840
O104        O  0.61703274  0.54598907  0.13129483    -0.83340
Mg105      Mg  0.39357511  0.44574531  0.00039884     1.57960
C106        C  0.61082604  0.64015479  0.92139272     0.92040
O107        O  0.36460161  0.41156834  0.93018912    -0.81610
H108        H  0.54686568  0.50326214  0.86716721    -0.06950
C109        C  0.52037667  0.59876732  0.04705592     0.86980
O110        O  0.57373547  0.41592897  0.01964913    -0.76120
O111        O  0.41573352  0.50881348  0.96348812    -0.88880
O112        O  0.56615982  0.63671468  0.91351713    -0.81690
C113        C  0.42131479  0.61415489  0.86273504     0.92160
C114        C  0.36194445  0.42213919  0.88585675     0.92010
Mg115      Mg  0.60661798  0.55342200  0.99797193     1.57950
O116        O  0.63694033  0.58741111  0.06614265    -0.81610
O117        O  0.58437088  0.52008523  0.92675411    -0.75850
O118        O  0.41156182  0.56967569  0.86436237    -0.81690
O119        O  0.36908608  0.38136154  0.04338717    -0.83400
O120        O  0.58740859  0.43420808  0.13650115    -0.81720
C121        C  0.54647744  0.52020356  0.90181992     0.86440
O122        O  0.58404484  0.49169209  0.03618990    -0.88870
O123        O  0.53675958  0.58338446  0.00913884    -0.88970
O124        O  0.52005014  0.57379315  0.08482293    -0.76030
Mg125      Mg  0.44642456  0.50013017  0.89359879     1.57970
O126        O  0.45569243  0.63240661  0.88595398    -0.83400
H127        H  0.49813962  0.36808796  0.95074569    -0.07130
O128        O  0.49128367  0.46423251  0.08289992    -0.88670
H129        H  0.45157837  0.49706138  0.13218217    -0.06950
H130        H  0.63361887  0.45282253  0.00280642    -0.07130
C131        C  0.45276199  0.48012772  0.09754552     0.86420
C132        C  0.48086576  0.40259153  0.95201665     0.87010
C133        C  0.59891162  0.45358649  0.01962137     0.87050
H134        H  0.50386926  0.63366564  0.04748799    -0.07110
O135        O  0.42733409  0.58406184  0.98176751    -0.76130
Mg136      Mg  0.55338009  0.50244368  0.10606964     1.58000
H137        H  0.36737199  0.54740324  0.99891639    -0.07120
C138        C  0.38944175  0.35937744  0.07770023     0.92040
O139        O  0.54563563  0.36925258  0.11685012    -0.83360
C140        C  0.57899522  0.38964231  0.14010415     0.92100
O141        O  0.38366527  0.45764455  0.86781145    -0.83350
Mg142      Mg  0.49849473  0.60632635  0.94809170     1.58180
O143        O  0.43388095  0.36386023  0.08666032    -0.81680
O144        O  0.63158760  0.61700409  0.95460115    -0.83380
O145        O  0.49114964  0.03560789  0.58392843    -0.88960
C146        C  0.48020936  0.09851576  0.45391904     0.87070
Mg147      Mg  0.55356003  0.99769558  0.60591555     1.58150
O148        O  0.41673010  0.99104088  0.46323430    -0.88690
O149        O  0.41570191  0.01814344  0.57271495    -0.76020
C150        C  0.61022876  0.86013388  0.42045299     0.92120
O151        O  0.57245722  0.08521952  0.52107339    -0.75840
O152        O  0.63084257  0.88329541  0.45371776    -0.83340
Mg153      Mg  0.50064040  0.10621420  0.55466169     1.57960
C154        C  0.42087622  0.88945434  0.35938476     0.92040
O155        O  0.43073401  0.13492889  0.58929406    -0.81610
H156        H  0.36654056  0.95250251  0.49604582    -0.06950
C157        C  0.54627898  0.98074686  0.40088291     0.86980
O158        O  0.52033194  0.92627783  0.58401546    -0.76120
O159        O  0.46329442  0.08371858  0.49191971    -0.88880
O160        O  0.41251910  0.93408797  0.36280321    -0.81690
C161        C  0.35929598  0.07881584  0.38910533     0.92160
C162        C  0.38621600  0.13664813  0.57936342     0.92010
Mg163      Mg  0.49758873  0.89400136  0.44611311     1.57950
O164        O  0.56562847  0.86377801  0.41214913    -0.81610
O165        O  0.42627443  0.91518305  0.47950091    -0.75850
O166        O  0.36301543  0.08681973  0.43372605    -0.81690
O167        O  0.54387163  0.13095868  0.61873664    -0.83400
O168        O  0.63682490  0.91273733  0.56550776    -0.81720
C169        C  0.40137038  0.95301562  0.47947558     0.86440
O170        O  0.53591228  0.91661560  0.50800027    -0.88870
O171        O  0.50823293  0.96408750  0.41574883    -0.88970
O172        O  0.58402338  0.98060214  0.42602175    -0.76030
Mg173      Mg  0.39385094  0.05212089  0.50153142     1.57970
O174        O  0.38258396  0.04574037  0.36843611    -0.83400
H175        H  0.45247487  0.00085214  0.63268885    -0.07130
O176        O  0.58322705  0.00899219  0.53573836    -0.88670
H177        H  0.63228330  0.04880453  0.50267041    -0.06950
H178        H  0.50290112  0.86673406  0.54681490    -0.07130
C179        C  0.59772769  0.04753182  0.51976303     0.86420
C180        C  0.45320760  0.01823099  0.59822640     0.87010
C181        C  0.51973780  0.90144226  0.54614236     0.87050
H182        H  0.54690988  0.99775015  0.36623129    -0.07110
O183        O  0.47985128  0.07357598  0.41607262    -0.76130
Mg184      Mg  0.60593128  0.94698336  0.49726203     1.58000
H185        H  0.49745916  0.13302315  0.45335746    -0.07120
C186        C  0.57813681  0.11068072  0.64085581     0.92040
O187        O  0.61769434  0.95453146  0.63056115    -0.83360
C188        C  0.64073058  0.92113647  0.61008042     0.92100
O189        O  0.36795890  0.11401765  0.54459464    -0.83350
Mg190      Mg  0.44640812  0.00239441  0.39338474     1.58180
O191        O  0.58722143  0.06626907  0.63638438    -0.81680
O192        O  0.45424567  0.86899688  0.38258683    -0.83380
O193        O  0.03601808  0.41605286  0.00788202    -0.88960
C194        C  0.09829688  0.54671175  0.02075308     0.87070
Mg195      Mg  0.99876439  0.39370533  0.94511205     1.58150
O196        O  0.99135854  0.53591854  0.08447239    -0.88690
O197        O  0.01927762  0.42625328  0.08368292    -0.76020
C198        C  0.85986653  0.57938482  0.89025696     0.92120
O199        O  0.08418317  0.48161508  0.92713561    -0.75840
O200        O  0.88272978  0.54595687  0.86968373    -0.83340
Mg201      Mg  0.10551070  0.44755055  0.99834687     1.57960
C202        C  0.88949892  0.64045867  0.07966638     0.92040
O203        O  0.13590236  0.41272573  0.06589701    -0.81610
H204        H  0.95259042  0.50237089  0.13399347    -0.06950
C205        C  0.98059614  0.59873841  0.95427326     0.86980
O206        O  0.92697926  0.41496771  0.97855493    -0.76120
O207        O  0.08268693  0.50867638  0.03671508    -0.88880
O208        O  0.93410012  0.63683951  0.08817158    -0.81690
C209        C  0.07910546  0.60970492  0.14130689     0.92160
C210        C  0.13970344  0.42063669  0.11048339     0.92010
Mg211      Mg  0.89411592  0.55332227  0.00292719     1.57950
O212        O  0.86375620  0.58769008  0.93481844    -0.81610
O213        O  0.91557880  0.51954405  0.07415339    -0.75850
O214        O  0.08723095  0.56507768  0.13755102    -0.81690
O215        O  0.13129406  0.38547467  0.95551345    -0.83400
O216        O  0.91265470  0.43439369  0.86331816    -0.81720
C217        C  0.95327951  0.51935506  0.09933429     0.86440
O218        O  0.91685278  0.49133310  0.96434541    -0.88870
O219        O  0.96414038  0.58375034  0.99237991    -0.88970
O220        O  0.98007215  0.57383533  0.91643206    -0.76030
Mg221      Mg  0.05299865  0.49722202  0.10658330     1.57970
O222        O  0.04583214  0.63051866  0.11823126    -0.83400
H223        H  0.00155277  0.36688172  0.04633981    -0.07130
O224        O  0.00873477  0.46431954  0.91597032    -0.88670
H225        H  0.04750069  0.49879162  0.86708181    -0.06950
H226        H  0.86737263  0.45171352  0.99700630    -0.07130
C227        C  0.04671594  0.48152330  0.90159837     0.86420
C228        C  0.01894595  0.40131769  0.04583541     0.87010
C229        C  0.90199583  0.45282673  0.98003961     0.87050
H230        H  0.99764328  0.63334387  0.95361849    -0.07110
O231        O  0.07364634  0.58470648  0.02105959    -0.76130
Mg232      Mg  0.94658543  0.50262670  0.89418537     1.58000
H233        H  0.13313917  0.54713141  0.00420541    -0.07120
C234        C  0.11307709  0.36249815  0.92095928     0.92040
O235        O  0.95559240  0.36940103  0.88086769    -0.83360
C236        C  0.92152974  0.38996474  0.85869011     0.92100
O237        O  0.11660475  0.45372628  0.13129194    -0.83350
Mg238      Mg  0.00234637  0.60610870  0.05442868     1.58180
O239        O  0.06860968  0.36434479  0.91081475    -0.81680
O240        O  0.86904358  0.61703913  0.04647783    -0.83380
O241        O  0.02634474  0.99643102  0.58643319    -0.88960
C242        C  0.10439628  0.01293084  0.46584794     0.87070
Mg243      Mg  0.98222274  0.93542828  0.59741896     1.58150
O244        O  0.00405301  0.08680618  0.47422328    -0.88690
O245        O  0.02189188  0.07457169  0.58411779    -0.76020
C246        C  0.85967413  0.91233025  0.39741014     0.92120
O247        O  0.07453526  0.91640692  0.52110111    -0.75840
O248        O  0.87183826  0.89049270  0.43518801    -0.83340
Mg249      Mg  0.09790355  0.98185824  0.56526390     1.57960
C250        C  0.91308509  0.10221587  0.35878094     0.92040
O251        O  0.12560851  0.04387620  0.61194498    -0.81610
H252        H  0.96552422  0.13610279  0.50857814    -0.06950
C253        C  0.98776249  0.96500844  0.39663837     0.86980
O254        O  0.91626796  0.97929221  0.57460288    -0.76120
O255        O  0.08732813  0.02651380  0.50422427    -0.88880
O256        O  0.95532205  0.11148768  0.37303717    -0.81690
C257        C  0.10325405  0.14107214  0.41349179     0.92160
C258        C  0.13823270  0.08712827  0.60601200     0.92010
Mg259      Mg  0.90275989  0.01736613  0.43464045     1.57950
O260        O  0.87358708  0.95466085  0.38826404    -0.81610
O261        O  0.92586259  0.08358759  0.47812496    -0.75850
O262        O  0.11217288  0.12762651  0.45609339    -0.81690
O263        O  0.11066900  0.93223005  0.62772483    -0.83400
O264        O  0.88823533  0.87324451  0.54501228    -0.81720
C265        C  0.96549124  0.10375049  0.48757226     0.86440
O266        O  0.91327992  0.97399754  0.49657294    -0.88870
O267        O  0.97427798  0.00338782  0.41379003    -0.88970
O268        O  0.97839221  0.92530739  0.41661576    -0.76030
Mg269      Mg  0.06571676  0.09799470  0.51852739     1.57970
O270        O  0.06588585  0.12823438  0.39124306    -0.83400
H271        H  0.99183902  0.03414203  0.63621499    -0.07130
O272        O  0.99636061  0.91379120  0.52614678    -0.88670
H273        H  0.03402666  0.86432357  0.49108534    -0.06950
H274        H  0.86381217  0.00908562  0.53420640    -0.07130
C275        C  0.03462262  0.89655914  0.51226117     0.86420
C276        C  0.01283050  0.03469143  0.60387347     0.87010
C277        C  0.89615719  0.98799607  0.53477635     0.87050
H278        H  0.00878654  0.96526848  0.36431428    -0.07110
O279        O  0.08411681  0.02180071  0.42614144    -0.76130
Mg280      Mg  0.93475257  0.90257064  0.48273482     1.58000
H281        H  0.13687100  0.99203680  0.46614916    -0.07120
C282        C  0.08731259  0.89476692  0.63790205     0.92040
O283        O  0.93428771  0.87260217  0.60982131    -0.83360
C284        C  0.89700568  0.85971937  0.58754870     0.92100
O285        O  0.12823976  0.11047865  0.56837230    -0.83350
Mg286      Mg  0.01797207  0.06518943  0.40289879     1.58180
O287        O  0.04413602  0.88885803  0.62512239    -0.81680
O288        O  0.89111964  0.06465863  0.37124035    -0.83380
O289        O  0.41672389  0.00862018  0.03646698    -0.88960
C290        C  0.54622905  0.01910142  0.09920270     0.87070
Mg291      Mg  0.39404531  0.94751489  0.99808909     1.58150
O292        O  0.53558765  0.08329630  0.99209428    -0.88690
O293        O  0.42596113  0.08450265  0.02027029    -0.76020
C294        C  0.57863630  0.88939264  0.85926286     0.92120
O295        O  0.48015784  0.92620256  0.08375532    -0.75840
O296        O  0.54434205  0.86907034  0.88115308    -0.83340
Mg297      Mg  0.44641121  0.99728358  0.10640644     1.57960
C298        C  0.64048942  0.07902825  0.89036742     0.92040
O299        O  0.41209191  0.06544069  0.13688803    -0.81610
H300        H  0.50241324  0.13312689  0.95316294    -0.06950
C301        C  0.59787566  0.95245511  0.98038703     0.86980
O302        O  0.41574153  0.98158461  0.92699197    -0.76120
O303        O  0.50810424  0.03574469  0.08430201    -0.88880
O304        O  0.63653731  0.08744557  0.93491497    -0.81690
C305        C  0.60964659  0.13993094  0.07981999     0.92160
C306        C  0.42022171  0.11009528  0.14033131     0.92010
Mg307      Mg  0.55356058  0.00228388  0.89415495     1.57950
O308        O  0.58756251  0.93381328  0.86379048    -0.81610
O309        O  0.52008056  0.07363080  0.91600689    -0.75850
O310        O  0.56508947  0.13620520  0.08811578    -0.81690
O311        O  0.38278459  0.95379415  0.13105106    -0.83400
O312        O  0.43105683  0.86467666  0.91039564    -0.81720
C313        C  0.51937339  0.09844942  0.95389144     0.86440
O314        O  0.49123009  0.96423321  0.91588594    -0.88870
O315        O  0.58324650  0.99099170  0.96441089    -0.88970
O316        O  0.57272519  0.91473270  0.97895040    -0.76030
Mg317      Mg  0.49716464  0.10580575  0.05391921     1.57970
O318        O  0.63026268  0.11677458  0.04659889    -0.83400
H319        H  0.36636744  0.04706536  0.00352024    -0.07130
O320        O  0.46359106  0.91601883  0.00785190    -0.88670
H321        H  0.49800454  0.86680825  0.04651047    -0.06950
H322        H  0.45236440  0.99902791  0.86711875    -0.07130
C323        C  0.48060054  0.90126861  0.04590265     0.86420
C324        C  0.40120659  0.04661900  0.02020052     0.87010
C325        C  0.45320915  0.98159098  0.90155275     0.87050
H326        H  0.63244633  0.95120849  0.99758110    -0.07110
O327        O  0.58393061  0.01931983  0.07413112    -0.76130
Mg328      Mg  0.50096416  0.89362314  0.94515500     1.58000
H329        H  0.54697164  0.00204184  0.13382742    -0.07120
C330        C  0.35963923  0.92065378  0.11031148     0.92040
O331        O  0.36836569  0.88557525  0.95505038    -0.83360
C332        C  0.38657773  0.86287893  0.92035297     0.92100
O333        O  0.45360007  0.13062223  0.11734040    -0.83350
Mg334      Mg  0.60570458  0.05304311  0.00299940     1.58180
O335        O  0.36336451  0.91266514  0.06571308    -0.81680
O336        O  0.61757641  0.04557043  0.86982415    -0.83380
O337        O  0.02640737  0.00337195  0.91339551    -0.88960
C338        C  0.10440447  0.98708855  0.03416124     0.87070
Mg339      Mg  0.98214999  0.06432710  0.90247506     1.58150
O340        O  0.00431298  0.91308207  0.02560049    -0.88690
O341        O  0.02199161  0.92523328  0.91575506    -0.76020
C342        C  0.85931202  0.08719001  0.10218334     0.92120
O343        O  0.07447300  0.08348093  0.97876666    -0.75840
O344        O  0.87160132  0.10911998  0.06454078    -0.83340
Mg345      Mg  0.09795142  0.01804532  0.93461311     1.57960
C346        C  0.91333485  0.89704570  0.14075108     0.92040
O347        O  0.12567668  0.95596348  0.88798315    -0.81610
H348        H  0.96593298  0.86369610  0.99116810    -0.06950
C349        C  0.98767178  0.03471289  0.10336320     0.86980
O350        O  0.91634673  0.02036838  0.92519711    -0.76120
O351        O  0.08751927  0.97339197  0.99568444    -0.88880
O352        O  0.95566158  0.88801639  0.12667248    -0.81690
C353        C  0.10375346  0.85911415  0.08662728     0.92160
C354        C  0.13832891  0.91268404  0.89391350     0.92010
Mg355      Mg  0.90275985  0.98219465  0.06507764     1.57950
O356        O  0.87328868  0.04484241  0.11134876    -0.81610
O357        O  0.92610467  0.91607645  0.02160933    -0.75850
O358        O  0.11264999  0.87247398  0.04402788    -0.81690
O359        O  0.11051570  0.06779151  0.87209237    -0.83400
O360        O  0.88792598  0.12621999  0.95465341    -0.81720
C361        C  0.96580156  0.89603665  0.01219077     0.86440
O362        O  0.91322916  0.02565334  0.00322907    -0.88870
O363        O  0.97421754  0.99633604  0.08617618    -0.88970
O364        O  0.97829512  0.07441803  0.08333444    -0.76030
Mg365      Mg  0.06598942  0.90189228  0.98141655     1.57970
O366        O  0.06627638  0.87181537  0.10865605    -0.83400
H367        H  0.99182172  0.96566698  0.86358342    -0.07130
O368        O  0.99626242  0.08589862  0.97381165    -0.88670
H369        H  0.03387730  0.13543321  0.00888189    -0.06950
H370        H  0.86394109  0.99048903  0.96534412    -0.07130
C371        C  0.03451213  0.10321083  0.98768808     0.86420
C372        C  0.01288245  0.96511285  0.89595723     0.87010
C373        C  0.89621396  0.01163255  0.96493345     0.87050
H374        H  0.00870855  0.03444137  0.13575625    -0.07110
O375        O  0.08407792  0.97820831  0.07377594    -0.76130
Mg376      Mg  0.93457603  0.09708444  0.01709915     1.58000
H377        H  0.13676538  0.00810190  0.03402698    -0.07120
C378        C  0.08705587  0.10529072  0.86198804     0.92040
O379        O  0.93408731  0.12699019  0.89008315    -0.83360
C380        C  0.89669604  0.13971454  0.91214645     0.92100
O381        O  0.12842864  0.88934255  0.93155160    -0.83350
Mg382      Mg  0.01814028  0.93463503  0.09697748     1.58180
O383        O  0.04390891  0.11111575  0.87482667    -0.81680
O384        O  0.89123253  0.93463414  0.12837537    -0.83380
O385        O  0.71304132  0.74082716  0.33335246    -0.88960
C386        C  0.65099610  0.73064291  0.20353535     0.87070
Mg387      Mg  0.75123523  0.80175254  0.35631638     1.58150
O388        O  0.75864486  0.66719974  0.21439808    -0.88690
O389        O  0.72986508  0.66512179  0.32387192    -0.76020
C390        C  0.88800911  0.86397268  0.17229611     0.92120
O391        O  0.66543616  0.82335175  0.26995156    -0.75840
O392        O  0.86626054  0.88204245  0.20775612    -0.83340
Mg393      Mg  0.64318807  0.75213861  0.30333217     1.57960
C394        C  0.86062180  0.67194541  0.11001082     0.92040
O395        O  0.61302973  0.68389684  0.33738825    -0.81610
H396        H  0.79833221  0.61777169  0.24732445    -0.06950
C397        C  0.76909425  0.79811692  0.15264618     0.86980
O398        O  0.82243853  0.76796344  0.33417937    -0.76120
O399        O  0.66581970  0.71395722  0.24167200    -0.88880
O400        O  0.81614847  0.66322454  0.11435445    -0.81690
C401        C  0.67098012  0.61032336  0.13972048     0.92160
C402        C  0.60985315  0.63922798  0.32932826     0.92010
Mg403      Mg  0.85636433  0.74945308  0.19599126     1.57950
O404        O  0.88535931  0.81964722  0.16177567    -0.81610
O405        O  0.83493766  0.67752771  0.22917722    -0.75850
O406        O  0.66259895  0.61384716  0.18427465    -0.81690
O407        O  0.61809787  0.79560627  0.36678928    -0.83400
O408        O  0.83824117  0.88519554  0.31988163    -0.81720
C409        C  0.79715662  0.65243647  0.23036321     0.86440
O410        O  0.83412012  0.78635755  0.25895463    -0.88870
O411        O  0.78577927  0.75971232  0.16679750    -0.88970
O412        O  0.76984713  0.83552695  0.17826343    -0.76030
Mg413      Mg  0.69659296  0.64403689  0.25250960     1.57970
O414        O  0.70435426  0.63349177  0.11934894    -0.83400
H415        H  0.74593602  0.70238164  0.38372824    -0.07130
O416        O  0.74124196  0.83312947  0.28704645    -0.88670
H417        H  0.70289595  0.88288839  0.25308324    -0.06950
H418        H  0.88246254  0.75077478  0.29765569    -0.07130
C419        C  0.70331252  0.84822449  0.27008100     0.86420
C420        C  0.72945905  0.70286831  0.34880386     0.87010
C421        C  0.84809796  0.76837308  0.29683676     0.87050
H422        H  0.75184735  0.79947385  0.11811598    -0.07110
O423        O  0.67622292  0.73066536  0.16593339    -0.76130
Mg424      Mg  0.80343156  0.85631783  0.25020584     1.58000
H425        H  0.61627876  0.74753279  0.20270072    -0.07120
C426        C  0.63884055  0.82883454  0.38981591     0.92040
O427        O  0.79400266  0.86366492  0.38252262    -0.83360
C428        C  0.82847382  0.88671541  0.36435150     0.92100
O429        O  0.63302209  0.61877795  0.29599936    -0.83350
Mg430      Mg  0.74765297  0.69738373  0.14433610     1.58180
O431        O  0.68352209  0.83652813  0.38646293    -0.81680
O432        O  0.88096407  0.70631357  0.13179960    -0.83380
O433        O  0.74165949  0.33425489  0.71337184    -0.88960
C434        C  0.72916523  0.20306463  0.65199756     0.87070
Mg435      Mg  0.80418278  0.35698525  0.75047816     1.58150
O436        O  0.66620798  0.21401424  0.75944964    -0.88690
O437        O  0.66605678  0.32359634  0.73085092    -0.76020
C438        C  0.86363168  0.17115420  0.88669627     0.92120
O439        O  0.82264996  0.26870789  0.66504865    -0.75840
O440        O  0.88181505  0.20594028  0.86404514    -0.83340
Mg441      Mg  0.75127449  0.30227585  0.64410450     1.57960
C442        C  0.67158529  0.10979301  0.86148710     0.92040
O443        O  0.68361546  0.33669748  0.61397601    -0.81610
H444        H  0.61713280  0.24729496  0.79904552    -0.06950
C445        C  0.79654328  0.15188804  0.76860357     0.86980
O446        O  0.77095969  0.33496447  0.82226377    -0.76120
O447        O  0.71319463  0.24113437  0.66753269    -0.88880
O448        O  0.66270114  0.11387915  0.81700581    -0.81690
C449        C  0.60906367  0.13954809  0.67180824     0.92160
C450        C  0.63900069  0.32882425  0.61047361     0.92010
Mg451      Mg  0.74914276  0.19602564  0.85631817     1.57950
O452        O  0.81912663  0.16130534  0.88500983    -0.81610
O453        O  0.67725423  0.22950890  0.83541615    -0.75850
O454        O  0.61265236  0.18418452  0.66355907    -0.81690
O455        O  0.79411380  0.36422364  0.61782218    -0.83400
O456        O  0.88636527  0.31686217  0.83601634    -0.81720
C457        C  0.65177698  0.23028580  0.79785069     0.86440
O458        O  0.78642280  0.25880355  0.83304876    -0.88870
O459        O  0.75857451  0.16619949  0.78596655    -0.88970
O460        O  0.83399004  0.17741183  0.76833297    -0.76030
Mg461      Mg  0.64341403  0.25241350  0.69757592     1.57970
O462        O  0.63213096  0.11900040  0.70524514    -0.83400
H463        H  0.70312005  0.38335564  0.74782592    -0.07130
O464        O  0.83329124  0.28669594  0.74030288    -0.88670
H465        H  0.88289804  0.25279694  0.70195920    -0.06950
H466        H  0.75273308  0.29825838  0.88195919    -0.07130
C467        C  0.84810984  0.26954601  0.70250534     0.86420
C468        C  0.70372001  0.34882389  0.73063834     0.87010
C469        C  0.76994986  0.29718967  0.84746831     0.87050
H470        H  0.79735130  0.11736992  0.75139937    -0.07110
O471        O  0.72905072  0.16513563  0.67676766    -0.76130
Mg472      Mg  0.85590560  0.24875939  0.80177339     1.58000
H473        H  0.74553702  0.20255482  0.61708442    -0.07120
C474        C  0.82864974  0.38732459  0.63597335     0.92040
O475        O  0.86826540  0.38192537  0.79357533    -0.83360
C476        C  0.89060362  0.36136990  0.82750621     0.92100
O477        O  0.61826161  0.29582481  0.63382766    -0.83350
Mg478      Mg  0.69616523  0.14384391  0.74834210     1.58180
O479        O  0.83846781  0.38605719  0.68052259    -0.81680
O480        O  0.70577115  0.13205491  0.88169596    -0.83380
O481        O  0.16329213  0.75452478  0.72349907    -0.88960
C482        C  0.28411025  0.73723758  0.64530192     0.87070
Mg483      Mg  0.15227838  0.81543080  0.76802105     1.58150
O484        O  0.27536735  0.66338356  0.74548646    -0.88690
O485        O  0.16557403  0.67631792  0.72771396    -0.76020
C486        C  0.35344707  0.83740269  0.88910483     0.92120
O487        O  0.22883000  0.83418332  0.67507444    -0.75840
O488        O  0.31589574  0.85947436  0.87667111    -0.83340
Mg489      Mg  0.18455663  0.76882645  0.65194724     1.57960
C490        C  0.39016002  0.64715775  0.83685375     0.92040
O491        O  0.13753817  0.70681704  0.62436184    -0.81610
H492        H  0.24072476  0.61422868  0.78395030    -0.06950
C493        C  0.35358961  0.78468740  0.76113263     0.86980
O494        O  0.17562576  0.77117493  0.83346417    -0.76120
O495        O  0.24563118  0.72394183  0.66242054    -0.88880
O496        O  0.37609974  0.63790608  0.79455468    -0.81690
C497        C  0.33602765  0.60879486  0.64640624     0.92160
C498        C  0.14344068  0.66359855  0.61156616     0.92010
Mg499      Mg  0.31534247  0.73259477  0.84647401     1.57950
O500        O  0.36222108  0.79491046  0.87553520    -0.81610
O501        O  0.27145406  0.66657611  0.82361163    -0.75850
O502        O  0.29354343  0.62261246  0.63734335    -0.81690
O503        O  0.12231402  0.81880619  0.63944202    -0.83400
O504        O  0.20610545  0.87510227  0.86094742    -0.81720
C505        C  0.26190396  0.64647627  0.78400454     0.86440
O506        O  0.25377323  0.77606554  0.83551307    -0.88870
O507        O  0.33647296  0.74641036  0.77504191    -0.88970
O508        O  0.33363673  0.82451273  0.77008879    -0.76030
Mg509      Mg  0.23106552  0.65249249  0.68384216     1.57970
O510        O  0.35815087  0.62124860  0.68395836    -0.83400
H511        H  0.11359070  0.71670628  0.75803074    -0.07130
O512        O  0.22369552  0.83687320  0.75320577    -0.88670
H513        H  0.25865233  0.88640086  0.71551833    -0.06950
H514        H  0.21651613  0.74107732  0.88533841    -0.07130
C515        C  0.23752847  0.85412228  0.71494293     0.86420
C516        C  0.14588652  0.71620830  0.73695684     0.87010
C517        C  0.21566998  0.76224599  0.85306082     0.87050
H518        H  0.38582358  0.78420230  0.73996408    -0.07110
O519        O  0.32381769  0.72793995  0.66544687    -0.76130
Mg520      Mg  0.26787926  0.84741887  0.81410166     1.58000
H521        H  0.28392248  0.75816426  0.61285821    -0.07120
C522        C  0.11202762  0.85625426  0.66280526     0.92040
O523        O  0.13933024  0.87774035  0.81781008    -0.83360
C524        C  0.16285945  0.88783289  0.85525075     0.92100
O525        O  0.18117056  0.64026949  0.62131053    -0.83350
Mg526      Mg  0.34685562  0.68441886  0.73164837     1.58180
O527        O  0.12445537  0.86212197  0.70611571    -0.81680
O528        O  0.37816201  0.68501949  0.85849840    -0.83380
O529        O  0.16246998  0.24561354  0.77622329    -0.88960
C530        C  0.28420872  0.26210730  0.85378695     0.87070
Mg531      Mg  0.15197903  0.18452911  0.73172333     1.58150
O532        O  0.27571397  0.33608853  0.75340021    -0.88690
O533        O  0.16589509  0.32371284  0.77128462    -0.76020
C534        C  0.35319355  0.16210865  0.61066503     0.92120
O535        O  0.22788072  0.16567264  0.82476497    -0.75840
O536        O  0.31579837  0.14003119  0.62334886    -0.83340
Mg537      Mg  0.18393567  0.23138018  0.84778890     1.57960
C538        C  0.39022064  0.35235994  0.66247855     0.92040
O539        O  0.13724709  0.29402813  0.87676781    -0.81610
H540        H  0.24118227  0.38565552  0.71516718    -0.06950
C541        C  0.35373295  0.21497397  0.73851829     0.86980
O542        O  0.17543175  0.22867183  0.66625732    -0.76120
O543        O  0.24567759  0.27551172  0.83666878    -0.88880
O544        O  0.37641631  0.36151353  0.70483563    -0.81690
C545        C  0.33662694  0.39063195  0.85274439     0.92160
C546        C  0.14617297  0.33663575  0.89004881     0.92010
Mg547      Mg  0.31525598  0.26705487  0.65288257     1.57950
O548        O  0.36195208  0.20465344  0.62402395    -0.81610
O549        O  0.27154054  0.33325730  0.67533236    -0.75850
O550        O  0.29433869  0.37644564  0.86172237    -0.81690
O551        O  0.12143539  0.18161130  0.86026330    -0.83400
O552        O  0.20597837  0.12478587  0.63893872    -0.81720
C553        C  0.26221494  0.35327598  0.71498160     0.86440
O554        O  0.25363364  0.22373089  0.66408953    -0.88870
O555        O  0.33673398  0.25325620  0.72434480    -0.88970
O556        O  0.33357073  0.17521427  0.72987207    -0.76030
Mg557      Mg  0.23186290  0.34687491  0.81496638     1.57970
O558        O  0.35867379  0.37843330  0.81515612    -0.83400
H559        H  0.11319575  0.28391537  0.74134827    -0.07130
O560        O  0.22350663  0.16333268  0.74662671    -0.88670
H561        H  0.25802050  0.11349892  0.78452127    -0.06950
H562        H  0.21606397  0.25875938  0.61435035    -0.07130
C563        C  0.23699614  0.14588061  0.78495311     0.86420
C564        C  0.14556989  0.28407748  0.76242527     0.87010
C565        C  0.21540191  0.23758364  0.64662384     0.87050
H566        H  0.38601692  0.21541864  0.75972860    -0.07110
O567        O  0.32389635  0.27158930  0.83381509    -0.76130
Mg568      Mg  0.26775090  0.15242040  0.68582836     1.58000
H569        H  0.28410471  0.24104680  0.88614393    -0.07120
C570        C  0.11158308  0.14390955  0.83704886     0.92040
O571        O  0.13937630  0.12201593  0.68209935    -0.83360
C572        C  0.16281487  0.11196493  0.64466794     0.92100
O573        O  0.18377256  0.35858121  0.87758474    -0.83350
Mg574      Mg  0.34718004  0.31513892  0.76765821     1.58180
O575        O  0.12427745  0.13789759  0.79384551    -0.81680
O576        O  0.37807292  0.31457709  0.64074838    -0.83380
O577        O  0.28676703  0.75861590  0.33291556    -0.88960
C578        C  0.34830980  0.76947337  0.20260340     0.87070
Mg579      Mg  0.24880205  0.69745765  0.35627411     1.58150
O580        O  0.24130548  0.83333427  0.21391667    -0.88690
O581        O  0.27038684  0.83447823  0.32327873    -0.76020
C582        C  0.10998574  0.63827090  0.17247781     0.92120
O583        O  0.33421375  0.67616547  0.26965923    -0.75840
O584        O  0.13216626  0.61780488  0.20655019    -0.83340
Mg585      Mg  0.35653825  0.74744412  0.30288171     1.57960
C586        C  0.13681649  0.82791429  0.11240676     0.92040
O587        O  0.38678087  0.81583802  0.33676526    -0.81610
H588        H  0.20243144  0.88247400  0.24793401    -0.06950
C589        C  0.23052517  0.70235352  0.15258001     0.86980
O590        O  0.17743474  0.73098947  0.33494946    -0.76120
O591        O  0.33363537  0.78568346  0.24093369    -0.88880
O592        O  0.18127612  0.83793229  0.11430497    -0.81690
C593        C  0.32848430  0.88981002  0.13893758     0.92160
C594        C  0.39016626  0.86047311  0.32844974     0.92010
Mg595      Mg  0.14438142  0.75085584  0.19791454     1.57950
O596        O  0.11428549  0.68272246  0.16383132    -0.81610
O597        O  0.16581615  0.82237133  0.23117850    -0.75850
O598        O  0.33714535  0.88570404  0.18343618    -0.81690
O599        O  0.38190044  0.70409227  0.36675864    -0.83400
O600        O  0.16157051  0.61416488  0.31946630    -0.81720
C601        C  0.20327940  0.84784313  0.23095924     0.86440
O602        O  0.16699895  0.71318573  0.25960571    -0.88870
O603        O  0.21393983  0.74075020  0.16684331    -0.88970
O604        O  0.22955521  0.66466048  0.17790839    -0.76030
Mg605      Mg  0.30344020  0.85578472  0.25181255     1.57970
O606        O  0.29444904  0.86753010  0.11850736    -0.83400
H607        H  0.25400451  0.79721143  0.38307856    -0.07130
O608        O  0.25858330  0.66556636  0.28696327    -0.88670
H609        H  0.29719037  0.61637217  0.25271725    -0.06950
H610        H  0.11735154  0.74713796  0.29785515    -0.07130
C611        C  0.29655421  0.65094279  0.26982493     0.86420
C612        C  0.27049743  0.79665984  0.34822347     0.87010
C613        C  0.15210912  0.73032181  0.29738575     0.87050
H614        H  0.24782157  0.70121455  0.11813148    -0.07110
O615        O  0.32302703  0.77021158  0.16491157    -0.76130
Mg616      Mg  0.19613704  0.64286908  0.24966620     1.58000
H617        H  0.38300573  0.75255832  0.20157698    -0.07120
C618        C  0.36130062  0.67112813  0.39031346     0.92040
O619        O  0.20584947  0.63552431  0.38239589    -0.83360
C620        C  0.17118701  0.61276982  0.36403814     0.92100
O621        O  0.36714251  0.88088468  0.29493405    -0.83350
Mg622      Mg  0.25116976  0.80349738  0.14362514     1.58180
O623        O  0.31666354  0.66314989  0.38686518    -0.81680
O624        O  0.11861561  0.79327937  0.13527920    -0.83380
O625        O  0.71289434  0.25896747  0.16677925    -0.88960
C626        C  0.65208396  0.26981196  0.29747127     0.87070
Mg627      Mg  0.75084559  0.19798932  0.14333226     1.58150
O628        O  0.75949715  0.33294554  0.28571340    -0.88690
O629        O  0.72974276  0.33466815  0.17639395    -0.76020
C630        C  0.88768496  0.13504827  0.32701797     0.92120
O631        O  0.66547523  0.17651492  0.23039431    -0.75840
O632        O  0.86577275  0.11686179  0.29169680    -0.83340
Mg633      Mg  0.64327667  0.24779531  0.19724766     1.57960
C634        C  0.86429451  0.32698463  0.38741572     0.92040
O635        O  0.61295139  0.31604115  0.16323029    -0.81610
H636        H  0.79911763  0.38165307  0.25189669    -0.06950
C637        C  0.76920944  0.20192534  0.34693648     0.86980
O638        O  0.82219925  0.23138283  0.16506332    -0.76120
O639        O  0.66659366  0.28596641  0.25902193    -0.88880
O640        O  0.81993364  0.33748699  0.38487431    -0.81690
C641        C  0.67240632  0.39003334  0.36088770     0.92160
C642        C  0.60972003  0.36070270  0.17126862     0.92010
Mg643      Mg  0.85639675  0.24925762  0.30268490     1.57950
O644        O  0.88519785  0.17940104  0.33720225    -0.81610
O645        O  0.83527188  0.32136689  0.26952991    -0.75850
O646        O  0.66349024  0.38593253  0.31643622    -0.81690
O647        O  0.61766453  0.20429532  0.13377941    -0.83400
O648        O  0.83756913  0.11395273  0.17968582    -0.81720
C649        C  0.79784104  0.34706280  0.26899361     0.86440
O650        O  0.83338973  0.21268230  0.24024259    -0.88870
O651        O  0.78649203  0.24019142  0.33317940    -0.88970
O652        O  0.76966383  0.16456543  0.32117724    -0.76030
Mg653      Mg  0.69700944  0.35590625  0.24790225     1.57970
O654        O  0.70660150  0.36771445  0.38114117    -0.83400
H655        H  0.74552474  0.29749053  0.11644921    -0.07130
O656        O  0.74096951  0.16631470  0.21246649    -0.88670
H657        H  0.70282456  0.11662006  0.24649968    -0.06950
H658        H  0.88236017  0.24756555  0.20195369    -0.07130
C659        C  0.70318219  0.15136453  0.22966867     0.86420
C660        C  0.72922998  0.29695082  0.15139835     0.87010
C661        C  0.84777257  0.23046430  0.20250249     0.87050
H662        H  0.75175160  0.20064355  0.38129968    -0.07110
O663        O  0.67754544  0.27045554  0.33505646    -0.76130
Mg664      Mg  0.80296609  0.14294881  0.24930303     1.58000
H665        H  0.61735531  0.25303737  0.29870516    -0.07120
C666        C  0.63831100  0.17120988  0.11045186     0.92040
O667        O  0.79358287  0.13602269  0.11685751    -0.83360
C668        C  0.82797267  0.11274014  0.13513404     0.92100
O669        O  0.63298185  0.38114904  0.20460224    -0.83350
Mg670      Mg  0.74963109  0.30333580  0.35611746     1.58180
O671        O  0.68303336  0.16359106  0.11345492    -0.81680
O672        O  0.88229700  0.29145902  0.36569706    -0.83380
O673        O  0.28590333  0.24151163  0.16564274    -0.88960
C674        C  0.34762790  0.23005766  0.29686258     0.87070
Mg675      Mg  0.24771375  0.30324646  0.14302157     1.58150
O676        O  0.24019765  0.16689327  0.28572329    -0.88690
O677        O  0.26900246  0.16584766  0.17616414    -0.76020
C678        C  0.11346723  0.36453055  0.32843828     0.92120
O679        O  0.33508882  0.32362451  0.22931574    -0.75840
O680        O  0.13662369  0.38274132  0.29405244    -0.83340
Mg681      Mg  0.35593427  0.25213543  0.19623347     1.57960
C682        C  0.13622197  0.17252318  0.38803990     0.92040
O683        O  0.38584253  0.18367191  0.16252820    -0.81610
H684        H  0.20036739  0.11821645  0.25206720    -0.06950
C685        C  0.23182481  0.29673367  0.34804213     0.86980
O686        O  0.17652862  0.27008180  0.16555447    -0.76120
O687        O  0.33279812  0.21412391  0.25841303    -0.88880
O688        O  0.18053717  0.16188788  0.38532995    -0.81690
C689        C  0.32790844  0.10956376  0.36043209     0.92160
C690        C  0.38922195  0.13907261  0.17097001     0.92010
Mg691      Mg  0.14372588  0.25038498  0.30345659     1.57950
O692        O  0.11490776  0.32002234  0.33815919    -0.81610
O693        O  0.16431463  0.17840617  0.26998145    -0.75850
O694        O  0.33651540  0.11399459  0.31597339    -0.81690
O695        O  0.38112431  0.29549355  0.13236410    -0.83400
O696        O  0.16358736  0.38643701  0.18356429    -0.81720
C697        C  0.20174771  0.15275354  0.26919775     0.86440
O698        O  0.16690838  0.28718342  0.24129563    -0.88870
O699        O  0.21376988  0.25895142  0.33406299    -0.88970
O700        O  0.23236019  0.33410956  0.32234784    -0.76030
Mg701      Mg  0.30234795  0.14416337  0.24758875     1.57970
O702        O  0.29371443  0.13151017  0.38086170    -0.83400
H703        H  0.25223234  0.20273448  0.11615267    -0.07130
O704        O  0.25927968  0.33319488  0.21282617    -0.88670
H705        H  0.29787341  0.38354154  0.24538354    -0.06950
H706        H  0.11703579  0.25336539  0.20309750    -0.07130
C707        C  0.29731807  0.34860779  0.22902659     0.86420
C708        C  0.26913055  0.20346218  0.15086955     0.87010
C709        C  0.15172253  0.27027466  0.20343696     0.87050
H710        H  0.24941270  0.29741092  0.38241754    -0.07110
O711        O  0.32259918  0.22891313  0.33465825    -0.76130
Mg712      Mg  0.19845498  0.35631697  0.25117759     1.58000
H713        H  0.38230467  0.24695441  0.29796697    -0.07120
C714        C  0.36059450  0.32867859  0.10887577     0.92040
O715        O  0.20422451  0.36680627  0.11801776    -0.83360
C716        C  0.17108675  0.38982816  0.13887973     0.92100
O717        O  0.36603396  0.11877856  0.20436008    -0.83350
Mg718      Mg  0.25067899  0.19589451  0.35625063     1.58180
O719        O  0.31593802  0.33693837  0.11222081    -0.81680
O720        O  0.11808308  0.20803540  0.36629248    -0.83380
O721        O  0.78635348  0.74119688  0.66606082    -0.88960
C722        C  0.84818770  0.72978134  0.79679873     0.87070
Mg723      Mg  0.74941664  0.80421575  0.64367935     1.58150
O724        O  0.74078583  0.66663863  0.78700249    -0.88690
O725        O  0.76806426  0.66592846  0.67765473    -0.76020
C726        C  0.60980275  0.86050792  0.82859533     0.92120
O727        O  0.83525123  0.82173264  0.73045318    -0.75840
O728        O  0.63302948  0.88092896  0.79527946    -0.83340
Mg729      Mg  0.85625256  0.74988009  0.69694581     1.57960
C730        C  0.63942786  0.67100146  0.89030394     0.92040
O731        O  0.88525574  0.68034850  0.66220281    -0.81610
H732        H  0.70237446  0.61632801  0.75417282    -0.06950
C733        C  0.73027914  0.79650338  0.84879490     0.86980
O734        O  0.67746325  0.77099482  0.66487122    -0.76120
O735        O  0.83303471  0.71287965  0.75893393    -0.88880
O736        O  0.68408525  0.66293225  0.88702056    -0.81690
C737        C  0.82868607  0.61017358  0.86153973     0.92160
C738        C  0.88684852  0.63582785  0.67186192     0.92010
Mg739      Mg  0.64379774  0.74760253  0.80318249     1.57950
O740        O  0.61335935  0.81590583  0.83697340    -0.81610
O741        O  0.66504212  0.67620848  0.77010273    -0.75850
O742        O  0.83638389  0.61341883  0.81685311    -0.81690
O743        O  0.88212841  0.79250135  0.63439132    -0.83400
O744        O  0.66314029  0.88601280  0.68342719    -0.81720
C745        C  0.70282773  0.65123877  0.77058286     0.86440
O746        O  0.66686144  0.78576905  0.74106984    -0.88870
O747        O  0.71378997  0.75840526  0.83385033    -0.88970
O748        O  0.73021531  0.83419403  0.82362083    -0.76030
Mg749      Mg  0.80176820  0.64364923  0.74894808     1.57970
O750        O  0.79553460  0.63337167  0.88216180    -0.83400
H751        H  0.75096536  0.70263327  0.61759693    -0.07130
O752        O  0.75944145  0.83326478  0.71424151    -0.88670
H753        H  0.79904767  0.88185694  0.74828022    -0.06950
H754        H  0.61763278  0.75279592  0.70128448    -0.07130
C755        C  0.79779140  0.84736536  0.73104985     0.86420
C756        C  0.76847465  0.70335046  0.65201193     0.87010
C757        C  0.65225781  0.76978751  0.70255064     0.87050
H758        H  0.74705974  0.79723279  0.88356859    -0.07110
O759        O  0.82329749  0.73005734  0.83461103    -0.76130
Mg760      Mg  0.69703300  0.85582491  0.75209609     1.58000
H761        H  0.88289400  0.74664860  0.79718639    -0.07120
C762        C  0.86401529  0.82807832  0.61273335     0.92040
O763        O  0.70633308  0.86849894  0.61878334    -0.83360
C764        C  0.67200030  0.89043421  0.63899486     0.92100
O765        O  0.86381148  0.61747283  0.70625616    -0.83350
Mg766      Mg  0.75210073  0.69679774  0.85674005     1.58180
O767        O  0.81963862  0.83851450  0.61516319    -0.81680
O768        O  0.61875819  0.70416272  0.86692644    -0.83380
loop_ 
_geom_bond_atom_site_label_1 
_geom_bond_atom_site_label_2 
_geom_bond_distance 
_geom_bond_site_symmetry_2 
_ccdc_geom_bond_type 
O1           Mg3   2.127       .  S
O1           Mg9   2.148       .  S
O1           C36   1.237       .  S
C2           O15   1.236       .  S
C2           O39   1.268       .  A
C2           H41   1.081       .  S
Mg3          O32   2.154       .  S
Mg3          O47   2.327       .  S
Mg3          O43   2.242       .  S
Mg3          O14   2.299       .  S
O4          Mg46   2.160       .  S
O4          Mg29   2.129       .  S
O4           C25   1.237       .  S
O5           C36   1.270       .  A
O5          Mg29   2.290       .  S
C6            O8   1.275       .  A
C6           O20   1.275       .  A
C6          C618   1.468       .  S
O7           C35   1.270       .  A
O7           Mg9   2.293       .  S
O8          Mg40   2.275       .  S
Mg9          O15   2.118       .  S
Mg9          O23   2.234       .  S
Mg9          O11   2.289       .  S
C10          O48   1.274       .  A
C10          O16   1.275       .  A
C10         C402   1.468       .  S
O11          C18   1.273       .  A
H12          C25   1.081       .  S
C13          O27   1.238       .  S
C13          O28   1.272       .  A
C13          H38   1.081       .  S
O14          C37   1.271       .  A
O15         Mg29   2.153       .  S
O16         Mg46   2.297       .  S
C17          O30   1.275       .  A
C17          O22   1.275       .  A
C17         C641   1.469       .  S
C18          O45   1.273       .  A
C18         C450   1.465       .  S
Mg19         O26   2.143       .  S
Mg19         O27   2.160       .  S
Mg19         O20   2.299       .  S
Mg19         O21   2.288       .  S
Mg19         O48   2.272       .  S
O21          C25   1.269       .  A
O22         Mg29   2.301       .  S
O23          C42   1.269       .  A
O24          C44   1.279       .  A
O24         Mg40   2.334       .  S
O26         Mg40   2.157       .  S
O26          C37   1.237       .  S
O27         Mg46   2.143       .  S
O28         Mg40   2.300       .  S
Mg29         O45   2.267       .  S
O30         Mg46   2.275       .  S
H31          C36   1.081       .  S
O32         Mg40   2.139       .  S
O32          C35   1.237       .  S
H33          C35   1.081       .  S
H34          C37   1.081       .  S
O39         Mg46   2.283       .  S
C42          O47   1.277       .  A
C42         C538   1.462       .  S
O43          C44   1.271       .  A
C44         C497   1.464       .  S
O49         Mg51   2.146   1_655  S
O49         Mg57   2.125       .  S
O49          C84   1.238       .  S
C50          O63   1.238       .  S
C50          O87   1.273       .  A
C50          H89   1.081       .  S
Mg51         O80   2.130       .  S
Mg51         O95   2.332   1_455  S
Mg51         O91   2.268       .  S
Mg51         O62   2.309       .  S
O52         Mg94   2.124       .  S
O52         Mg77   2.138       .  S
O52          C73   1.237   1_655  S
O53          C84   1.273       .  A
O53         Mg77   2.312       .  S
C54          O56   1.268       .  A
C54          O68   1.273       .  A
C54         C620   1.461       .  S
O55          C83   1.272       .  A
O55         Mg57   2.307       .  S
O56         Mg88   2.239       .  S
Mg57         O63   2.144       .  S
Mg57         O71   2.239       .  S
Mg57         O59   2.331       .  S
C58          O96   1.268       .  A
C58          O64   1.275       .  A
C58         C678   1.462       .  S
O59          C66   1.274       .  A
H60          C73   1.081       .  S
C61          O75   1.238       .  S
C61          O76   1.273       .  A
C61          H86   1.081   1_455  S
O62          C85   1.273       .  A
O63         Mg77   2.124       .  S
O64         Mg94   2.333   1_455  S
C65          O78   1.269       .  A
C65          O70   1.275       .  A
C65         C634   1.465       .  S
C66          O93   1.269       .  A
C66         C474   1.462       .  S
Mg67         O74   2.137       .  S
Mg67         O75   2.126       .  S
Mg67         O68   2.325       .  S
Mg67         O69   2.308       .  S
Mg67         O96   2.236       .  S
O69          C73   1.272       .  A
O70         Mg77   2.336       .  S
O71          C90   1.269       .  A
O72          C92   1.273       .  A
O72         Mg88   2.309       .  S
O74         Mg88   2.124       .  S
O74          C85   1.238       .  S
O75         Mg94   2.140   1_455  S
O76         Mg88   2.309       .  S
Mg77         O93   2.240       .  S
O78         Mg94   2.244       .  S
H79          C84   1.081   1_455  S
O80         Mg88   2.133       .  S
O80          C83   1.238   1_455  S
H81          C83   1.081       .  S
H82          C85   1.081       .  S
O87         Mg94   2.312       .  S
C90          O95   1.275       .  A
C90         C738   1.462       .  S
O91          C92   1.271       .  A
C92         C498   1.461       .  S
O97         Mg99   2.142   1_556  S
O97        Mg105   2.157   1_556  S
O97         C132   1.237       .  S
C98         O111   1.237       .  S
C98         O135   1.270       .  A
C98         H137   1.081       .  S
Mg99        O128   2.159       .  S
Mg99        O143   2.304       .  S
Mg99        O139   2.274       .  S
Mg99        O110   2.289       .  S
O100       Mg142   2.148       .  S
O100       Mg125   2.127       .  S
O100        C121   1.237       .  S
O101        C132   1.271       .  A
O101       Mg125   2.299       .  S
C102        O104   1.274       .  A
C102        O116   1.275       .  A
C102        C401   1.468       .  S
O103        C131   1.272       .  A
O103       Mg105   2.300       .  S
O104       Mg136   2.273       .  S
Mg105       O111   2.140   1_554  S
Mg105       O119   2.275       .  S
Mg105       O107   2.334   1_554  S
C106        O144   1.273       .  A
C106        O112   1.274       .  A
C106        C730   1.466       .  S
O107        C114   1.279       .  A
H108        C121   1.081       .  S
C109        O123   1.236       .  S
C109        O124   1.268       .  A
C109        H134   1.081       .  S
O110        C133   1.270       .  A
O111       Mg125   2.154       .  S
O112       Mg142   2.294       .  S
C113        O126   1.269       .  A
C113        O118   1.277       .  A
C113        C490   1.462       .  S
C114        O141   1.271       .  A
C114        C545   1.464       .  S
Mg115       O122   2.130   1_556  S
Mg115       O123   2.152   1_556  S
Mg115       O116   2.297   1_556  S
Mg115       O117   2.290       .  S
Mg115       O144   2.267       .  S
O117        C121   1.270       .  A
O118       Mg125   2.326       .  S
O119        C138   1.275       .  A
O120        C140   1.275       .  A
O120       Mg136   2.298       .  S
O122       Mg136   2.161       .  S
O122        C133   1.237       .  S
O123       Mg142   2.116   1_554  S
O124       Mg136   2.284       .  S
Mg125       O141   2.243       .  S
O126       Mg142   2.234       .  S
H127        C132   1.081       .  S
O128       Mg136   2.143       .  S
O128        C131   1.238       .  S
H129        C131   1.081       .  S
H130        C133   1.081       .  S
O135       Mg142   2.294       .  S
C138        O143   1.276       .  A
C138        C714   1.469       .  S
O139        C140   1.274       .  A
C140        C642   1.468       .  S
O145       Mg147   2.134   1_545  S
O145       Mg153   2.158       .  S
O145        C180   1.237       .  S
C146        O159   1.238       .  S
C146        O183   1.271       .  A
C146        H185   1.081       .  S
Mg147       O176   2.159   1_565  S
Mg147       O191   2.305   1_565  S
Mg147       O187   2.271       .  S
Mg147       O158   2.291       .  S
O148       Mg190   2.151   1_565  S
O148       Mg173   2.120   1_565  S
O148        C169   1.236       .  S
O149        C180   1.270       .  A
O149       Mg173   2.291       .  S
C150        O152   1.274       .  A
C150        O164   1.274       .  A
C150        C426   1.467       .  S
O151        C179   1.271       .  A
O151       Mg153   2.299       .  S
O152       Mg184   2.273       .  S
Mg153       O159   2.140       .  S
Mg153       O167   2.273       .  S
Mg153       O155   2.330       .  S
C154        O192   1.273       .  A
C154        O160   1.276       .  A
C154        C594   1.466       .  S
O155        C162   1.278       .  A
H156        C169   1.081       .  S
C157        O171   1.237       .  S
C157        O172   1.269       .  A
C157        H182   1.081       .  S
O158        C181   1.270       .  A
O159       Mg173   2.155       .  S
O160       Mg190   2.302   1_565  S
C161        O174   1.273       .  A
C161        O166   1.275       .  A
C161        C689   1.468       .  S
C162        O189   1.270       .  A
C162        C534   1.462       .  S
Mg163       O170   2.135       .  S
Mg163       O171   2.160       .  S
Mg163       O164   2.293       .  S
Mg163       O165   2.285       .  S
Mg163       O192   2.265       .  S
O165        C169   1.268       .  A
O166       Mg173   2.300       .  S
O167        C186   1.274       .  A
O168        C188   1.276       .  A
O168       Mg184   2.306       .  S
O170       Mg184   2.160       .  S
O170        C181   1.237       .  S
O171       Mg190   2.130   1_565  S
O172       Mg184   2.289       .  S
Mg173       O189   2.235       .  S
O174       Mg190   2.269       .  S
H175        C180   1.081       .  S
O176       Mg184   2.142   1_545  S
O176        C179   1.238       .  S
H177        C179   1.081       .  S
H178        C181   1.081       .  S
O183       Mg190   2.294       .  S
C186        O191   1.276       .  A
C186        C449   1.469       .  S
O187        C188   1.274       .  A
C188        C764   1.469       .  S
O193       Mg195   2.138   1_454  S
O193       Mg201   2.155   1_554  S
O193        C228   1.237       .  S
C194        O207   1.236       .  S
C194        O231   1.268       .  A
C194        H233   1.081       .  S
Mg195       O224   2.158   1_655  S
Mg195       O239   2.331   1_655  S
Mg195       O235   2.272       .  S
Mg195       O206   2.298       .  S
O196       Mg238   2.161   1_655  S
O196       Mg221   2.129   1_655  S
O196        C217   1.236       .  S
O197        C228   1.271       .  A
O197       Mg221   2.294       .  S
C198        O200   1.273       .  A
C198        O212   1.275       .  A
C198        C737   1.466       .  S
O199        C227   1.269       .  A
O199       Mg201   2.289       .  S
O200       Mg232   2.266       .  S
Mg201       O207   2.122   1_556  S
Mg201       O215   2.234       .  S
Mg201       O203   2.291   1_556  S
C202        O240   1.274       .  A
C202        O208   1.275       .  A
C202        C394   1.469       .  S
O203        C210   1.273       .  A
H204        C217   1.081       .  S
C205        O219   1.237       .  S
C205        O220   1.270       .  A
C205        H230   1.081       .  S
O206        C229   1.271       .  A
O207       Mg221   2.152       .  S
O208       Mg238   2.301   1_655  S
C209        O222   1.274       .  A
C209        O214   1.275       .  A
C209        C582   1.467       .  S
C210        O237   1.273       .  A
C210        C716   1.465       .  S
Mg211       O218   2.144   1_554  S
Mg211       O219   2.160   1_554  S
Mg211       O212   2.298   1_554  S
Mg211       O213   2.287       .  S
Mg211       O240   2.275       .  S
O213        C217   1.269       .  A
O214       Mg221   2.300       .  S
O215        C234   1.270       .  A
O216        C236   1.276       .  A
O216       Mg232   2.304       .  S
O218       Mg232   2.160       .  S
O218        C229   1.237       .  S
O219       Mg238   2.135   1_656  S
O220       Mg232   2.292       .  S
Mg221       O237   2.265       .  S
O222       Mg238   2.268       .  S
H223        C228   1.081       .  S
O224       Mg232   2.132   1_455  S
O224        C227   1.236       .  S
H225        C227   1.081       .  S
H226        C229   1.081       .  S
O231       Mg238   2.286       .  S
C234        O239   1.278       .  A
C234        C546   1.462       .  S
O235        C236   1.275       .  A
C236        C476   1.468       .  S
O241       Mg243   2.132   1_455  S
O241       Mg249   2.131       .  S
O241        C276   1.238   1_565  S
C242        O255   1.238       .  S
C242        O279   1.273       .  A
C242        H281   1.081   1_545  S
Mg243       O272   2.125       .  S
Mg243       O287   2.303   1_655  S
Mg243       O283   2.242       .  S
Mg243       O254   2.307       .  S
O244       Mg286   2.126       .  S
O244       Mg269   2.149       .  S
O244        C265   1.238   1_455  S
O245        C276   1.272       .  A
O245       Mg269   2.307       .  S
C246        O248   1.268       .  A
C246        O260   1.275       .  A
C246        C428   1.462       .  S
O247        C275   1.273       .  A
O247       Mg249   2.308       .  S
O248       Mg280   2.234       .  S
Mg249       O255   2.138   1_565  S
Mg249       O263   2.262       .  S
Mg249       O251   2.310   1_565  S
C250        O288   1.268       .  A
C250        O256   1.275       .  A
C250        C630   1.463       .  S
O251        C258   1.273       .  A
H252        C265   1.081       .  S
C253        O267   1.237   1_565  S
C253        O268   1.273       .  A
C253        H278   1.081   1_655  S
O254        C277   1.272       .  A
O255       Mg269   2.130       .  S
O256       Mg286   2.335   1_655  S
C257        O270   1.270       .  A
C257        O262   1.276       .  A
C257        C682   1.463       .  S
C258        O285   1.271       .  A
C258        C572   1.460       .  S
Mg259       O266   2.137   1_545  S
Mg259       O267   2.124       .  S
Mg259       O260   2.334   1_545  S
Mg259       O261   2.313       .  S
Mg259       O288   2.238       .  S
O261        C265   1.273       .  A
O262       Mg269   2.335       .  S
O263        C282   1.270       .  A
O264        C284   1.274       .  A
O264       Mg280   2.329       .  S
O266       Mg280   2.125       .  S
O266        C277   1.238       .  S
O267       Mg286   2.143   1_655  S
O268       Mg280   2.311       .  S
Mg269       O285   2.266       .  S
O270       Mg286   2.243       .  S
H271        C276   1.081   1_655  S
O272       Mg280   2.133       .  S
O272        C275   1.239   1_655  S
H273        C275   1.081       .  S
H274        C277   1.081   1_545  S
O279       Mg286   2.308       .  S
C282        O287   1.272       .  A
C282        C522   1.458       .  S
O283        C284   1.268       .  A
C284        C762   1.463       .  S
O289       Mg291   2.120   1_544  S
O289       Mg297   2.151   1_545  S
O289        C324   1.236       .  S
C290        O303   1.237       .  S
C290        O327   1.269       .  A
C290        H329   1.081       .  S
Mg291       O320   2.155   1_556  S
Mg291       O335   2.299   1_556  S
Mg291       O331   2.233       .  S
Mg291       O302   2.291       .  S
O292       Mg334   2.160   1_556  S
O292       Mg317   2.137   1_556  S
O292        C313   1.237       .  S
O293        C324   1.268       .  A
O293       Mg317   2.285       .  S
C294        O296   1.275       .  A
C294        O308   1.276       .  A
C294        C726   1.469       .  S
O295        C323   1.271       .  A
O295       Mg297   2.294       .  S
O296       Mg328   2.275       .  S
Mg297       O303   2.130   1_565  S
Mg297       O311   2.268       .  S
Mg297       O299   2.303   1_565  S
C298        O336   1.274       .  A
C298        O304   1.276       .  A
C298        C442   1.469       .  S
O299        C306   1.276       .  A
H300        C313   1.081       .  S
C301        O315   1.238       .  S
C301        O316   1.271       .  A
C301        H326   1.081       .  S
O302        C325   1.270       .  A
O303       Mg317   2.160       .  S
O304       Mg334   2.306   1_556  S
C305        O318   1.274       .  A
C305        O310   1.274       .  A
C305        C666   1.466       .  S
C306        O333   1.274       .  A
C306        C690   1.467       .  S
Mg307       O314   2.136   1_545  S
Mg307       O315   2.159   1_545  S
Mg307       O308   2.305   1_545  S
Mg307       O309   2.292       .  S
Mg307       O336   2.271       .  S
O309        C313   1.270       .  A
O310       Mg317   2.294       .  S
O311        C330   1.273       .  A
O312        C332   1.278       .  A
O312       Mg328   2.332       .  S
O314       Mg328   2.158       .  S
O314        C325   1.237       .  S
O315       Mg334   2.143   1_566  S
O316       Mg328   2.299       .  S
Mg317       O333   2.267       .  S
O318       Mg334   2.271       .  S
H319        C324   1.081       .  S
O320       Mg328   2.141   1_554  S
O320        C323   1.238       .  S
H321        C323   1.081       .  S
H322        C325   1.081       .  S
O327       Mg334   2.289       .  S
C330        O335   1.274       .  A
C330        C593   1.468       .  S
O331        C332   1.270       .  A
C332        C486   1.462       .  S
O337       Mg339   2.131   1_455  S
O337       Mg345   2.130       .  S
O337        C372   1.238   1_545  S
C338        O351   1.238   1_554  S
C338        O375   1.273       .  A
C338        H377   1.081   1_565  S
Mg339       O368   2.125       .  S
Mg339       O383   2.306   1_655  S
Mg339       O379   2.238       .  S
Mg339       O350   2.308       .  S
O340       Mg382   2.125       .  S
O340       Mg365   2.150   1_554  S
O340        C361   1.238   1_455  S
O341        C372   1.272       .  A
O341       Mg365   2.306       .  S
C342        O344   1.268       .  A
C342        O356   1.275       .  A
C342        C668   1.462       .  S
O343        C371   1.273       .  A
O343       Mg345   2.309       .  S
O344       Mg376   2.236       .  S
Mg345       O351   2.139   1_545  S
Mg345       O359   2.266       .  S
Mg345       O347   2.311   1_545  S
C346        O384   1.269       .  A
C346        O352   1.275       .  A
C346        C390   1.465       .  S
O347        C354   1.274       .  A
H348        C361   1.081   1_556  S
C349        O363   1.237   1_545  S
C349        O364   1.272       .  A
C349        H374   1.081   1_655  S
O350        C373   1.273       .  A
O351       Mg365   2.131       .  S
O352       Mg382   2.338   1_655  S
C353        O366   1.270       .  A
C353        O358   1.276       .  A
C353        C586   1.462       .  S
C354        O381   1.272       .  A
C354        C524   1.461       .  S
Mg355       O362   2.138   1_565  S
Mg355       O363   2.124       .  S
Mg355       O356   2.334   1_565  S
Mg355       O357   2.313       .  S
Mg355       O384   2.241       .  S
O357        C361   1.273       .  A
O358       Mg365   2.335   1_554  S
O359        C378   1.270       .  A
O360        C380   1.274       .  A
O360       Mg376   2.329   1_556  S
O362       Mg376   2.125       .  S
O362        C373   1.238   1_554  S
O363       Mg382   2.142   1_655  S
O364       Mg376   2.310       .  S
Mg365       O381   2.268       .  S
O366       Mg382   2.240       .  S
H367        C372   1.081   1_655  S
O368       Mg376   2.136   1_556  S
O368        C371   1.239   1_655  S
H369        C371   1.081   1_554  S
H370        C373   1.081   1_565  S
O375       Mg382   2.309       .  S
C378        O383   1.272       .  A
C378        C570   1.460       .  S
O379        C380   1.268       .  A
C380        C438   1.462       .  S
O385       Mg387   2.115       .  S
O385       Mg393   2.151       .  S
O385        C420   1.236       .  S
C386        O399   1.237       .  S
C386        O423   1.270       .  A
C386        H425   1.081       .  S
Mg387       O416   2.148       .  S
Mg387       O431   2.294       .  S
Mg387       O427   2.233       .  S
Mg387       O398   2.294       .  S
O388       Mg430   2.158       .  S
O388       Mg413   2.142       .  S
O388        C409   1.238       .  S
O389        C420   1.268       .  A
O389       Mg413   2.283       .  S
C390        O392   1.272       .  A
C390        O404   1.279       .  A
O391        C419   1.270       .  A
O391       Mg393   2.290       .  S
O392       Mg424   2.245       .  S
Mg393       O399   2.130       .  S
Mg393       O407   2.268       .  S
Mg393       O395   2.298       .  S
C394        O432   1.275       .  A
C394        O400   1.276       .  A
O395        C402   1.275       .  A
H396        C409   1.081       .  S
C397        O411   1.237       .  S
C397        O412   1.271       .  A
C397        H422   1.081       .  S
O398        C421   1.271       .  A
O399       Mg413   2.161       .  S
O400       Mg430   2.304       .  S
C401        O414   1.274       .  A
C401        O406   1.275       .  A
C402        O429   1.274       .  A
Mg403       O410   2.139       .  S
Mg403       O411   2.157       .  S
Mg403       O404   2.334       .  S
Mg403       O405   2.299       .  S
Mg403       O432   2.276       .  S
O405        C409   1.271       .  A
O406       Mg413   2.297       .  S
O407        C426   1.273       .  A
O408        C428   1.277       .  A
O408       Mg424   2.327       .  S
O410       Mg424   2.153       .  S
O410        C421   1.237       .  S
O411       Mg430   2.142       .  S
O412       Mg424   2.299       .  S
Mg413       O429   2.273       .  S
O414       Mg430   2.273       .  S
H415        C420   1.081       .  S
O416       Mg424   2.128       .  S
O416        C419   1.237       .  S
H417        C419   1.081       .  S
H418        C421   1.081       .  S
O423       Mg430   2.289       .  S
C426        O431   1.274       .  A
O427        C428   1.269       .  A
O433       Mg435   2.133       .  S
O433       Mg441   2.156       .  S
O433        C468   1.238       .  S
C434        O447   1.236       .  S
C434        O471   1.269       .  A
C434        H473   1.081       .  S
Mg435       O464   2.150       .  S
Mg435       O479   2.331       .  S
Mg435       O475   2.273       .  S
Mg435       O446   2.302       .  S
O436       Mg478   2.160       .  S
O436       Mg461   2.136       .  S
O436        C457   1.237       .  S
O437        C468   1.270       .  A
O437       Mg461   2.292       .  S
C438        O440   1.270       .  A
C438        O452   1.278       .  A
O439        C467   1.268       .  A
O439       Mg441   2.284       .  S
O440       Mg472   2.236       .  S
Mg441       O447   2.123       .  S
Mg441       O455   2.236       .  S
Mg441       O443   2.286       .  S
C442        O480   1.275       .  A
C442        O448   1.276       .  A
O443        C450   1.273       .  A
H444        C457   1.081       .  S
C445        O459   1.237       .  S
C445        O460   1.270       .  A
C445        H470   1.081       .  S
O446        C469   1.272       .  A
O447       Mg461   2.153       .  S
O448       Mg478   2.300       .  S
C449        O462   1.274       .  A
C449        O454   1.276       .  A
C450        O477   1.273       .  A
Mg451       O458   2.148       .  S
Mg451       O459   2.158       .  S
Mg451       O452   2.329       .  S
Mg451       O453   2.295       .  S
Mg451       O480   2.280       .  S
O453        C457   1.271       .  A
O454       Mg461   2.304       .  S
O455        C474   1.270       .  A
O456        C476   1.275       .  A
O456       Mg472   2.301       .  S
O458       Mg472   2.154       .  S
O458        C469   1.238       .  S
O459       Mg478   2.135       .  S
O460       Mg472   2.292       .  S
Mg461       O477   2.271       .  S
O462       Mg478   2.271       .  S
H463        C468   1.081       .  S
O464       Mg472   2.119       .  S
O464        C467   1.236       .  S
H465        C467   1.081       .  S
H466        C469   1.081       .  S
O471       Mg478   2.287       .  S
C474        O479   1.278       .  A
O475        C476   1.274       .  A
O481       Mg483   2.137       .  S
O481       Mg489   2.130       .  S
O481        C516   1.238       .  S
C482        O495   1.238       .  S
C482        O519   1.273       .  A
C482        H521   1.081       .  S
Mg483       O512   2.131       .  S
Mg483       O527   2.306       .  S
Mg483       O523   2.265       .  S
Mg483       O494   2.306       .  S
O484       Mg526   2.124       .  S
O484       Mg509   2.147       .  S
O484        C505   1.238       .  S
O485        C516   1.273       .  A
O485       Mg509   2.309       .  S
C486        O488   1.268       .  A
C486        O500   1.274       .  A
O487        C515   1.273       .  A
O487       Mg489   2.305       .  S
O488       Mg520   2.234       .  S
Mg489       O495   2.142       .  S
Mg489       O503   2.262       .  S
Mg489       O491   2.314       .  S
C490        O528   1.268       .  A
C490        O496   1.275       .  A
O491        C498   1.274       .  A
H492        C505   1.081       .  S
C493        O507   1.238       .  S
C493        O508   1.273       .  A
C493        H518   1.081       .  S
O494        C517   1.273       .  A
O495       Mg509   2.129       .  S
O496       Mg526   2.338       .  S
C497        O510   1.270       .  A
C497        O502   1.276       .  A
C498        O525   1.271       .  A
Mg499       O506   2.132       .  S
Mg499       O507   2.124       .  S
Mg499       O500   2.332       .  S
Mg499       O501   2.312       .  S
Mg499       O528   2.231       .  S
O501        C505   1.273       .  A
O502       Mg509   2.339       .  S
O503        C522   1.270       .  A
O504        C524   1.272       .  A
O504       Mg520   2.308       .  S
O506       Mg520   2.124       .  S
O506        C517   1.238       .  S
O507       Mg526   2.141       .  S
O508       Mg520   2.309       .  S
Mg509       O525   2.266       .  S
O510       Mg526   2.241       .  S
H511        C516   1.081       .  S
O512       Mg520   2.127       .  S
O512        C515   1.239       .  S
H513        C515   1.081       .  S
H514        C517   1.081       .  S
O519       Mg526   2.310       .  S
C522        O527   1.273       .  A
O523        C524   1.270       .  A
O529       Mg531   2.139       .  S
O529       Mg537   2.130       .  S
O529        C564   1.238       .  S
C530        O543   1.238       .  S
C530        O567   1.274       .  A
C530        H569   1.081       .  S
Mg531       O560   2.130       .  S
Mg531       O575   2.311       .  S
Mg531       O571   2.265       .  S
Mg531       O542   2.308       .  S
O532       Mg574   2.123       .  S
O532       Mg557   2.141       .  S
O532        C553   1.237       .  S
O533        C564   1.273       .  A
O533       Mg557   2.309       .  S
C534        O536   1.268       .  A
C534        O548   1.274       .  A
O535        C563   1.272       .  A
O535       Mg537   2.307       .  S
O536       Mg568   2.237       .  S
Mg537       O543   2.150       .  S
Mg537       O551   2.266       .  S
Mg537       O539   2.335       .  S
C538        O576   1.268       .  A
C538        O544   1.275       .  A
O539        C546   1.276       .  A
H540        C553   1.081       .  S
C541        O555   1.238       .  S
C541        O556   1.273       .  A
C541        H566   1.081       .  S
O542        C565   1.273       .  A
O543       Mg557   2.124       .  S
O544       Mg574   2.337       .  S
C545        O558   1.269       .  A
C545        O550   1.275       .  A
C546        O573   1.269       .  A
Mg547       O554   2.134       .  S
Mg547       O555   2.125       .  S
Mg547       O548   2.329       .  S
Mg547       O549   2.310       .  S
Mg547       O576   2.234       .  S
O549        C553   1.272       .  A
O550       Mg557   2.337       .  S
O551        C570   1.271       .  A
O552        C572   1.272       .  A
O552       Mg568   2.306       .  S
O554       Mg568   2.125       .  S
O554        C565   1.239       .  S
O555       Mg574   2.137       .  S
O556       Mg568   2.308       .  S
Mg557       O573   2.238       .  S
O558       Mg574   2.241       .  S
H559        C564   1.081       .  S
O560       Mg568   2.131       .  S
O560        C563   1.238       .  S
H561        C563   1.081       .  S
H562        C565   1.081       .  S
O567       Mg574   2.313       .  S
C570        O575   1.274       .  A
O571        C572   1.270       .  A
O577       Mg579   2.121       .  S
O577       Mg585   2.152       .  S
O577        C612   1.236       .  S
C578        O591   1.237       .  S
C578        O615   1.271       .  A
C578        H617   1.081       .  S
Mg579       O608   2.156       .  S
Mg579       O623   2.294       .  S
Mg579       O619   2.236       .  S
Mg579       O590   2.286       .  S
O580       Mg622   2.159       .  S
O580       Mg605   2.133       .  S
O580        C601   1.237       .  S
O581        C612   1.269       .  A
O581       Mg605   2.287       .  S
C582        O584   1.274       .  A
C582        O596   1.274       .  A
O583        C611   1.270       .  A
O583       Mg585   2.291       .  S
O584       Mg616   2.271       .  S
Mg585       O591   2.136       .  S
Mg585       O599   2.274       .  S
Mg585       O587   2.301       .  S
C586        O624   1.270       .  A
C586        O592   1.278       .  A
O587        C594   1.275       .  A
H588        C601   1.081       .  S
C589        O603   1.238       .  S
C589        O604   1.272       .  A
C589        H614   1.081       .  S
O590        C613   1.268       .  A
O591       Mg605   2.160       .  S
O592       Mg622   2.330       .  S
C593        O606   1.275       .  A
C593        O598   1.275       .  A
C594        O621   1.273       .  A
Mg595       O602   2.120       .  S
Mg595       O603   2.154       .  S
Mg595       O596   2.296       .  S
Mg595       O597   2.291       .  S
Mg595       O624   2.237       .  S
O597        C601   1.270       .  A
O598       Mg605   2.296       .  S
O599        C618   1.274       .  A
O600        C620   1.278       .  A
O600       Mg616   2.327       .  S
O602       Mg616   2.150       .  S
O602        C613   1.236       .  S
O603       Mg622   2.146       .  S
O604       Mg616   2.302       .  S
Mg605       O621   2.266       .  S
O606       Mg622   2.278       .  S
H607        C612   1.081       .  S
O608       Mg616   2.134       .  S
O608        C611   1.237       .  S
H609        C611   1.081       .  S
H610        C613   1.081       .  S
O615       Mg622   2.295       .  S
C618        O623   1.274       .  A
O619        C620   1.270       .  A
O625       Mg627   2.117       .  S
O625       Mg633   2.153       .  S
O625        C660   1.236       .  S
C626        O639   1.238       .  S
C626        O663   1.271       .  A
C626        H665   1.081       .  S
Mg627       O656   2.148       .  S
Mg627       O671   2.288       .  S
Mg627       O667   2.236       .  S
Mg627       O638   2.289       .  S
O628       Mg670   2.158       .  S
O628       Mg653   2.142       .  S
O628        C649   1.238       .  S
O629        C660   1.268       .  A
O629       Mg653   2.284       .  S
C630        O632   1.271       .  A
C630        O644   1.277       .  A
O631        C659   1.269       .  A
O631       Mg633   2.287       .  S
O632       Mg664   2.243       .  S
Mg633       O639   2.137       .  S
Mg633       O647   2.272       .  S
Mg633       O635   2.297       .  S
C634        O672   1.272       .  A
C634        O640   1.279       .  A
O635        C642   1.275       .  A
H636        C649   1.081       .  S
C637        O651   1.238       .  S
C637        O652   1.272       .  A
C637        H662   1.081       .  S
O638        C661   1.269       .  A
O639       Mg653   2.160       .  S
O640       Mg670   2.333       .  S
C641        O654   1.275       .  A
C641        O646   1.275       .  A
C642        O669   1.275       .  A
Mg643       O650   2.128       .  S
Mg643       O651   2.153       .  S
Mg643       O644   2.325       .  S
Mg643       O645   2.299       .  S
Mg643       O672   2.246       .  S
O645        C649   1.271       .  A
O646       Mg653   2.299       .  S
O647        C666   1.274       .  A
O648        C668   1.277       .  A
O648       Mg664   2.327       .  S
O650       Mg664   2.147       .  S
O650        C661   1.237       .  S
O651       Mg670   2.147       .  S
O652       Mg664   2.302       .  S
Mg653       O669   2.275       .  S
O654       Mg670   2.280       .  S
H655        C660   1.081       .  S
O656       Mg664   2.121       .  S
O656        C659   1.237       .  S
H657        C659   1.081       .  S
H658        C661   1.081       .  S
O663       Mg670   2.296       .  S
C666        O671   1.273       .  A
O667        C668   1.270       .  A
O673       Mg675   2.128       .  S
O673       Mg681   2.160       .  S
O673        C708   1.237       .  S
C674        O687   1.238       .  S
C674        O711   1.272       .  A
C674        H713   1.081       .  S
Mg675       O704   2.153       .  S
Mg675       O719   2.301       .  S
Mg675       O715   2.266       .  S
Mg675       O686   2.290       .  S
O676       Mg718   2.157       .  S
O676       Mg701   2.141       .  S
O676        C697   1.237       .  S
O677        C708   1.269       .  A
O677       Mg701   2.288       .  S
C678        O680   1.269       .  A
C678        O692   1.277       .  A
O679        C707   1.268       .  A
O679       Mg681   2.284       .  S
O680       Mg712   2.236       .  S
Mg681       O687   2.143       .  S
Mg681       O695   2.276       .  S
Mg681       O683   2.297       .  S
C682        O720   1.271       .  A
C682        O688   1.279       .  A
O683        C690   1.275       .  A
H684        C697   1.081       .  S
C685        O699   1.237       .  S
C685        O700   1.270       .  A
C685        H710   1.081       .  S
O686        C709   1.270       .  A
O687       Mg701   2.160       .  S
O688       Mg718   2.332       .  S
C689        O702   1.275       .  A
C689        O694   1.275       .  A
C690        O717   1.274       .  A
Mg691       O698   2.126       .  S
Mg691       O699   2.154       .  S
Mg691       O692   2.325       .  S
Mg691       O693   2.298       .  S
Mg691       O720   2.242       .  S
O693        C697   1.271       .  A
O694       Mg701   2.300       .  S
O695        C714   1.275       .  A
O696        C716   1.273       .  A
O696       Mg712   2.290       .  S
O698       Mg712   2.148       .  S
O698        C709   1.237       .  S
O699       Mg718   2.138       .  S
O700       Mg712   2.293       .  S
Mg701       O717   2.272       .  S
O702       Mg718   2.275       .  S
H703        C708   1.081       .  S
O704       Mg712   2.117       .  S
O704        C707   1.236       .  S
H705        C707   1.081       .  S
H706        C709   1.081       .  S
O711       Mg718   2.299       .  S
C714        O719   1.275       .  A
O715        C716   1.273       .  A
O721       Mg723   2.139       .  S
O721       Mg729   2.153       .  S
O721        C756   1.237       .  S
C722        O735   1.237       .  S
C722        O759   1.269       .  A
C722        H761   1.081       .  S
Mg723       O752   2.157       .  S
Mg723       O767   2.332       .  S
Mg723       O763   2.275       .  S
Mg723       O734   2.299       .  S
O724       Mg766   2.153       .  S
O724       Mg749   2.116       .  S
O724        C745   1.236       .  S
O725        C756   1.271       .  A
O725       Mg749   2.294       .  S
C726        O728   1.274       .  A
C726        O740   1.275       .  A
O727        C755   1.271       .  A
O727       Mg729   2.299       .  S
O728       Mg760   2.276       .  S
Mg729       O735   2.125       .  S
Mg729       O743   2.242       .  S
Mg729       O731   2.325       .  S
C730        O768   1.274       .  A
C730        O736   1.274       .  A
O731        C738   1.277       .  A
H732        C745   1.081       .  S
C733        O747   1.237       .  S
C733        O748   1.269       .  A
C733        H758   1.081       .  S
O734        C757   1.272       .  A
O735       Mg749   2.147       .  S
O736       Mg766   2.293       .  S
C737        O750   1.273       .  A
C737        O742   1.274       .  A
C738        O765   1.269       .  A
Mg739       O746   2.143       .  S
Mg739       O747   2.161       .  S
Mg739       O740   2.300       .  S
Mg739       O741   2.284       .  S
Mg739       O768   2.273       .  S
O741        C745   1.268       .  A
O742       Mg749   2.295       .  S
O743        C762   1.271       .  A
O744        C764   1.276       .  A
O744       Mg760   2.304       .  S
O746       Mg760   2.160       .  S
O746        C757   1.238       .  S
O747       Mg766   2.129       .  S
O748       Mg760   2.289       .  S
Mg749       O765   2.235       .  S
O750       Mg766   2.266       .  S
H751        C756   1.081       .  S
O752       Mg760   2.142       .  S
O752        C755   1.237       .  S
H753        C755   1.081       .  S
H754        C757   1.081       .  S
O759       Mg766   2.288       .  S
C762        O767   1.279       .  A
O763        C764   1.275       .  A
