geometry optimzed in LAMMPS
_audit_creation_date              2020-11-30 
_audit_creation_method            'lammps2cif' 
_symmetry_space_group_name_H-M    'P1' 
_symmetry_Int_Tables_number       1 
_symmetry_cell_setting            triclinic 
loop_ 
_symmetry_equiv_pos_as_xyz 
  x,y,z 
_cell_length_a                    34.54423221 
_cell_length_b                    34.2589253111527 
_cell_length_c                    34.46727431935276 
_cell_angle_alpha                 89.68441854384402 
_cell_angle_beta                  90.13139190473169 
_cell_angle_gamma                 91.0373077922987 
loop_ 
_atom_site_label 
_atom_site_type_symbol 
_atom_site_fract_x 
_atom_site_fract_y 
_atom_site_fract_z 
_atom_site_charge 
O1          O  0.53147254  0.04724896  0.85826626    -0.87500
O2          O  0.52862845  0.04967400  0.63764671    -0.87700
O3          O  0.60812477  0.03610749  0.73831520    -0.89400
O4          O  0.52251992  0.12647093  0.75494546    -0.88100
O5          O  0.45598901  0.12713757  0.75667981    -0.87700
O6          O  0.60636131  0.96921167  0.73887703    -0.89100
O7          O  0.56046813  0.08388231  0.68505331    -0.87600
O8          O  0.56930357  0.07542928  0.81056342    -0.87200
Zr9        Zr  0.54171757  0.05836040  0.74776293     2.84300
O10         O  0.48644072  0.05908989  0.70821060    -1.09100
O11         O  0.54100506  0.00298779  0.78757162    -1.09900
C12         C  0.55998456  0.06895206  0.84629674     1.05600
C13         C  0.55288879  0.07633920  0.64919650     1.05500
C14         C  0.62422507  0.00249542  0.73445308     1.08500
C15         C  0.48985591  0.14385474  0.75913893     1.06300
H16         H  0.56130896  0.00287027  0.69105903     0.31800
O17         O  0.53931883  0.00302409  0.70825020    -1.30100
H18         H  0.48756780  0.08118519  0.80427102     0.31500
O19         O  0.48677670  0.05890728  0.78726633    -1.31800
O20         O  0.44078753  0.95465870  0.63842354    -0.87500
O21         O  0.43778800  0.96123303  0.85873279    -0.89000
O22         O  0.55760287  0.92176325  0.68597395    -0.87600
O23         O  0.41192233  0.08550175  0.68444433    -0.87700
O24         O  0.40525248  0.07861136  0.81032553    -0.87400
O25         O  0.56582562  0.92893632  0.81060235    -0.87200
O26         O  0.44832820  0.88093469  0.75531236    -0.87600
O27         O  0.36133118  0.97092974  0.74397351    -0.87000
O28         O  0.51496083  0.88084123  0.75419761    -0.88100
O29         O  0.36450761  0.03752337  0.74481500    -0.87200
O30         O  0.52798612  0.95696940  0.63804928    -0.87600
O31         O  0.53269245  0.96078072  0.85804975    -0.87400
O32         O  0.44089314  0.04857501  0.85744934    -0.87000
O33         O  0.44223662  0.05018375  0.63710836    -0.87400
O34         O  0.40922825  0.91974738  0.68623540    -0.87700
O35         O  0.40078581  0.93161039  0.81144716    -0.89100
Zr36       Zr  0.48417176  0.00301293  0.66910635     2.83100
Zr37       Zr  0.48543950  0.00334734  0.82654865     2.83500
Zr38       Zr  0.53874734  0.94777696  0.74825445     2.84100
Zr39       Zr  0.43160190  0.05988715  0.74769689     2.83400
Zr40       Zr  0.42801012  0.94836875  0.74835339     2.84200
O41         O  0.43023532  0.00413181  0.78704702    -1.09600
O42         O  0.48319701  0.94761527  0.70919006    -1.09100
C43         C  0.41747350  0.92709334  0.65034606     1.05500
C44         C  0.40925541  0.93934309  0.84712508     1.08100
C45         C  0.55105210  0.92999058  0.65005308     1.05700
C46         C  0.41945377  0.07729131  0.64870380     1.06100
C47         C  0.41404650  0.07205556  0.84615396     1.05600
C48         C  0.55957375  0.93771231  0.84636291     1.05200
C49         C  0.48137503  0.86397642  0.75691489     1.05600
C50         C  0.34549910  0.00488266  0.74305469     1.05100
H51         H  0.48312640  0.92525108  0.80507061     0.31800
O52         O  0.48354200  0.94764437  0.78793682    -1.30700
H53         H  0.40647724  0.00413620  0.69170310     0.31800
O54         O  0.42904628  0.00401068  0.70828296    -1.32100
C55         C  0.69692350  0.19770503  0.50736606     0.85400
C56         C  0.67830763  0.17523882  0.54162716    -0.54800
C57         C  0.63876191  0.17358568  0.54034655     0.08400
C58         C  0.62106403  0.19475928  0.50535950     0.19300
C59         C  0.68005320  0.17807666  0.47108759    -0.55500
C60         C  0.64062026  0.17560797  0.47018736     0.08500
C61         C  0.67759022  0.23753429  0.50929943    -0.55100
C62         C  0.63827202  0.23652332  0.50814359     0.09000
H63         H  0.69336497  0.16225465  0.56556159     0.13500
H64         H  0.58892888  0.19341288  0.50439582    -0.00700
H65         H  0.69804232  0.16605125  0.44843725     0.13800
H66         H  0.69398629  0.26479807  0.51192393     0.13600
O67         O  0.57030921  0.09787764  0.31323381    -0.87500
O68         O  0.42296935  0.93146265  0.31231357    -0.87700
O69         O  0.45107160  0.06001944  0.35822025    -0.89400
O70         O  0.53639019  0.96758467  0.36180099    -0.88100
O71         O  0.56746744  0.93245331  0.31500292    -0.87700
O72         O  0.41958790  0.09289156  0.30978982    -0.89100
O73         O  0.45111961  0.96932728  0.35968698    -0.87600
O74         O  0.53888004  0.06139027  0.36016726    -0.87200
Zr75       Zr  0.49568679  0.01463034  0.32816428     2.84300
O76         O  0.49466538  0.95813403  0.28990292    -1.09100
O77         O  0.49696924  0.07019334  0.28840120    -1.09900
C78         C  0.56204081  0.08917268  0.34885606     1.05600
C79         C  0.42881430  0.94113506  0.34802897     1.05500
C80         C  0.42685101  0.08560971  0.34575011     1.08500
C81         C  0.55929023  0.94045370  0.35063115     1.06300
H82         H  0.41886330  0.01336460  0.30496097     0.31800
O83         O  0.44125529  0.01343783  0.28828265    -1.30100
H84         H  0.57337628  0.01471979  0.30750141     0.31500
O85         O  0.55136464  0.01489565  0.29019819    -1.31800
O86         O  0.41329347  0.94172347  0.18589520    -0.87500
O87         O  0.58181123  0.08617862  0.18678756    -0.89000
O88         O  0.37554774  0.04552897  0.25386163    -0.87600
O89         O  0.52771353  0.89155029  0.24421192    -0.87700
O90         O  0.61656750  0.98134455  0.25567242    -0.87400
O91         O  0.46475981  0.13615239  0.24510142    -0.87200
O92         O  0.44960730  0.05674017  0.13849873    -0.87600
O93         O  0.54315612  0.96997676  0.14125307    -0.87000
O94         O  0.41450460  0.08591506  0.18636290    -0.88100
O95         O  0.57595282  0.93814826  0.18991059    -0.87200
O96         O  0.37370402  0.97880501  0.25747438    -0.87600
O97         O  0.53121968  0.13816685  0.24381039    -0.87400
O98         O  0.61911692  0.04803795  0.25872808    -0.87000
O99         O  0.46161340  0.89072496  0.23978076    -0.87400
O100        O  0.45096093  0.97016954  0.13856349    -0.87700
O101        O  0.54601401  0.05615036  0.13930922    -0.89100
Zr102      Zr  0.44046037  0.95787444  0.24906556     2.83100
Zr103      Zr  0.55274784  0.07061967  0.24996442     2.83500
Zr104      Zr  0.44239527  0.06857898  0.24838393     2.84100
Zr105      Zr  0.54986138  0.95895931  0.25140396     2.83400
Zr106      Zr  0.49705553  0.01443391  0.17066283     2.84200
O107        O  0.55135673  0.01449473  0.21163205    -1.09600
O108        O  0.44147874  0.01337888  0.20936207    -1.09100
C109        C  0.42250689  0.94792233  0.15009174     1.05500
C110        C  0.57462037  0.07816296  0.15083598     1.08100
C111        C  0.35749626  0.01249070  0.25876129     1.05700
C112        C  0.49480529  0.87390882  0.23859413     1.06100
C113        C  0.63488189  0.01404945  0.26027546     1.05600
C114        C  0.49767240  0.15431215  0.24187965     1.05200
C115        C  0.42193674  0.07869787  0.15052628     1.05600
C116        C  0.56884189  0.94605502  0.15403948     1.05100
H117        H  0.49803995  0.09298211  0.19228525     0.31800
O118        O  0.49787161  0.07040773  0.20919339    -1.30700
H119        H  0.49591792  0.93655043  0.19329961     0.31800
O120        O  0.49588137  0.95887308  0.21024127    -1.32100
C121        C  0.29013648  0.81956580  0.00233686     0.85400
C122        C  0.30180414  0.83836325  0.96332031    -0.54800
C123        C  0.30580035  0.87790706  0.96416293     0.08400
C124        C  0.29613844  0.89584394  0.00406800     0.19300
C125        C  0.32048248  0.83551231  0.03109519    -0.55500
C126        C  0.32365104  0.87544605  0.03253574     0.08500
C127        C  0.25255972  0.83991740  0.01236489    -0.55100
C128        C  0.25504781  0.87969029  0.01428276     0.09000
H129        H  0.30972582  0.82288665  0.93738080     0.13500
H130        H  0.29888344  0.92786369  0.00548980    -0.00700
H131        H  0.33790894  0.81642877  0.04901160     0.13800
H132        H  0.22564797  0.82367163  0.01697307     0.13600
C133        C  0.69325337  0.81933519  0.00071645     0.85400
C134        C  0.66880503  0.83107656  0.03656233    -0.54800
C135        C  0.65678608  0.86879999  0.03617651     0.08400
C136        C  0.67130735  0.89224953  0.00090620     0.19300
C137        C  0.66804917  0.83092579  0.96561637    -0.55500
C138        C  0.65652837  0.86887487  0.96578143     0.08500
C139        C  0.72674694  0.84928171  0.00145397    -0.55100
C140        C  0.71544009  0.88723309  0.00194163     0.09000
H141        H  0.66339567  0.81332677  0.06192051     0.13500
H142        H  0.66230293  0.92321045  0.00049696    -0.00700
H143        H  0.65957341  0.81065226  0.94288615     0.13800
H144        H  0.75693175  0.84114146  0.00363519     0.13600
C145        C  0.69105677  0.81648304  0.49964863     0.85400
C146        C  0.67384368  0.83559328  0.46260681    -0.54800
C147        C  0.63488161  0.84175374  0.46392128     0.08400
C148        C  0.61596936  0.82800568  0.50209473     0.19300
C149        C  0.67841082  0.84396377  0.53237289    -0.55500
C150        C  0.63926518  0.84968369  0.53361565     0.08500
C151        C  0.66624968  0.77959484  0.50566813    -0.55100
C152        C  0.62704906  0.78493853  0.50693937     0.09000
H153        H  0.69026174  0.84610385  0.43794416     0.13500
H154        H  0.58441249  0.83331506  0.50322098    -0.00700
H155        H  0.69838051  0.85717030  0.55305088     0.13800
H156        H  0.67904322  0.75091348  0.50793909     0.13600
C157        C  0.29246209  0.20249700  0.00080376     0.85400
C158        C  0.31085145  0.18781308  0.03868115    -0.54800
C159        C  0.31688639  0.14854016  0.03982416     0.08400
C160        C  0.30418778  0.12703407  0.00238009     0.19300
C161        C  0.32096370  0.18766879  0.96939961    -0.55500
C162        C  0.32687032  0.14801120  0.96980178     0.08500
C163        C  0.25597909  0.17720708  0.99492614    -0.55100
C164        C  0.26166190  0.13789129  0.99529193     0.09000
H165        H  0.32081628  0.20723597  0.06156920     0.13500
H166        H  0.30807169  0.09520115  0.00296762    -0.00700
H167        H  0.33634543  0.20628536  0.94901640     0.13800
H168        H  0.22772069  0.18972975  0.98986277     0.13600
C169        C  0.68080968  0.21076527  0.98991567     0.85400
C170        C  0.65559799  0.19376559  0.95684209    -0.54800
C171        C  0.65511581  0.15377707  0.95548982     0.08400
C172        C  0.68123434  0.13443960  0.98637464     0.19300
C173        C  0.66491060  0.19005840  0.02629987    -0.55500
C174        C  0.66476703  0.15007960  0.02508002     0.08500
C175        C  0.72042379  0.19388501  0.98239716    -0.55100
C176        C  0.72141174  0.15455912  0.98089858     0.09000
H177        H  0.63895230  0.21071325  0.93641859     0.13500
H178        H  0.68254002  0.10218588  0.98485720    -0.00700
H179        H  0.65288145  0.20616168  0.05036528     0.13800
H180        H  0.74653595  0.21192596  0.97962167     0.13600
C181        C  0.29695449  0.20919306  0.49635511     0.85400
C182        C  0.30517739  0.18024773  0.46344418    -0.54800
C183        C  0.34290928  0.16936127  0.46154253     0.08400
C184        C  0.36932449  0.18791308  0.49203551     0.19300
C185        C  0.31283726  0.18970091  0.53365569    -0.55500
C186        C  0.35058790  0.17755763  0.53139363     0.08500
C187        C  0.32622359  0.24307488  0.48957663    -0.55100
C188        C  0.36367781  0.23182669  0.48698882     0.09000
H189        H  0.28339550  0.17022025  0.44284222     0.13500
H190        H  0.39954637  0.17867677  0.48820445    -0.00700
H191        H  0.29544169  0.18588429  0.55960848     0.13800
H192        H  0.31945126  0.27379254  0.48946472     0.13600
C193        C  0.29715074  0.81159710  0.49347556     0.85400
C194        C  0.31535294  0.82062983  0.53289440    -0.54800
C195        C  0.35464103  0.82345857  0.53278399     0.08400
C196        C  0.37271639  0.81477485  0.49266118     0.19300
C197        C  0.31417690  0.84350891  0.46649236    -0.55500
C198        C  0.35396139  0.84488141  0.46528119     0.08500
C199        C  0.31579385  0.77450724  0.47889748    -0.55100
C200        C  0.35496533  0.77528794  0.47940881     0.09000
H201        H  0.29817181  0.82929508  0.55768955     0.13500
H202        H  0.40472681  0.81417565  0.49274396    -0.00700
H203        H  0.29705809  0.86267127  0.44865647     0.13800
H204        H  0.29925503  0.74837173  0.47114522     0.13600
O205        O  0.87327608  0.76763323  0.46215233    -0.87500
O206        O  0.03087275  0.75739966  0.61492906    -0.87700
O207        O  0.91953030  0.70048471  0.57282765    -0.89400
O208        O  0.92309501  0.82725355  0.57474638    -0.88100
O209        O  0.94971917  0.87551335  0.53597374    -0.87700
O210        O  0.95411744  0.65319456  0.54248322    -0.89100
O211        O  0.96448797  0.75762220  0.61638208    -0.87600
O212        O  0.87387185  0.77000039  0.52853045    -0.87200
Zr213      Zr  0.94149945  0.76396649  0.54931248     2.84300
O214        O  0.99588687  0.80544576  0.54831935    -1.09100
O215        O  0.94103306  0.72273762  0.49511002    -1.09900
C216        C  0.85642740  0.77231815  0.49530547     1.05600
C217        C  0.99804069  0.75365426  0.63257387     1.05500
C218        C  0.92864792  0.66453314  0.56730264     1.08500
C219        C  0.92816277  0.86329394  0.56444799     1.06300
H220        H  0.99763567  0.70853276  0.57090796     0.31800
O221        O  0.99671784  0.72522885  0.54834361    -1.30100
H222        H  0.91850215  0.81888495  0.49252531     0.31500
O223        O  0.94089071  0.80245295  0.49289254    -1.31800
O224        O  0.11639287  0.77555614  0.52550936    -0.87500
O225        O  0.96208674  0.75363633  0.37171595    -0.89000
O226        O  0.04661859  0.65685013  0.53690877    -0.87600
O227        O  0.03698819  0.87731367  0.53954457    -0.87700
O228        O  0.95220312  0.87227980  0.44471834    -0.87400
O229        O  0.94781129  0.65039629  0.45338592    -0.87200
O230        O  0.07891840  0.70350801  0.42027237    -0.87600
O231        O  0.06579495  0.82873023  0.40690122    -0.87000
O232        O  0.04571904  0.65429045  0.45240650    -0.88100
O233        O  0.03654461  0.87639767  0.44185616    -0.87200
O234        O  0.08083146  0.70620892  0.56621283    -0.87600
O235        O  0.91162963  0.69716787  0.42359669    -0.87400
O236        O  0.92311476  0.82285378  0.40947700    -0.87000
O237        O  0.06704889  0.82990962  0.57527701    -0.87400
O238        O  0.11627375  0.77687606  0.45878371    -0.87700
O239        O  0.02851172  0.75718091  0.37037296    -0.89100
Zr240      Zr  0.05074479  0.76688857  0.54760974     2.83100
Zr241      Zr  0.94002579  0.76098216  0.43885536     2.83500
Zr242      Zr  0.99685948  0.68444823  0.49424653     2.84100
Zr243      Zr  0.99542054  0.84401010  0.49180684     2.83400
Zr244      Zr  0.05007997  0.76568795  0.43706565     2.84200
O245        O  0.99432130  0.80278665  0.43765328    -1.09600
O246        O  0.05093001  0.72683440  0.49297158    -1.09100
C247        C  0.13285000  0.77966755  0.49226227     1.05500
C248        C  0.99511828  0.75210050  0.35411016     1.08100
C249        C  0.07430021  0.66982941  0.55914633     1.05700
C250        C  0.05890069  0.86574682  0.56773807     1.06100
C251        C  0.93041532  0.85901599  0.41726029     1.05600
C252        C  0.91895311  0.66116347  0.43182186     1.05200
C253        C  0.07269991  0.66729272  0.42933195     1.05600
C254        C  0.05822992  0.86485663  0.41347624     1.05100
H255        H  0.99592901  0.70559863  0.41640555     0.31800
O256        O  0.99584137  0.72304362  0.43826604    -1.30700
H257        H  0.07253495  0.82460357  0.49144300     0.31800
O258        O  0.05080632  0.80649157  0.49175534    -1.32100
O259        O  0.87403863  0.25339031  0.47031360    -0.87500
O260        O  0.02919482  0.26690912  0.62501067    -0.87700
O261        O  0.91969593  0.19708119  0.58497339    -0.89400
O262        O  0.91301282  0.32475282  0.57895892    -0.88100
O263        O  0.94760308  0.37356513  0.54763005    -0.87700
O264        O  0.94988277  0.15066188  0.54883180    -0.89100
O265        O  0.96283079  0.26778385  0.62658266    -0.87600
O266        O  0.87424973  0.25150373  0.53685023    -0.87200
Zr267      Zr  0.93999845  0.26187941  0.56002229     2.84300
O268        O  0.99541267  0.30267356  0.56009588    -1.09100
O269        O  0.93888784  0.22446893  0.50349521    -1.09900
C270        C  0.85753481  0.24839413  0.50344004     1.05600
C271        C  0.99655740  0.26995763  0.64274074     1.05500
C272        C  0.92649522  0.16105901  0.57617225     1.08500
C273        C  0.92041563  0.36098985  0.57042333     1.06300
H274        H  0.99519496  0.20685623  0.58130900     0.31800
O275        O  0.99493004  0.22327445  0.55845430    -1.30100
H276        H  0.91602283  0.31744468  0.50529408     0.31500
O277        O  0.93942726  0.30249418  0.50514886    -1.31800
O278        O  0.11654118  0.25348221  0.53586724    -0.87500
O279        O  0.96135971  0.27800445  0.38277137    -0.89000
O280        O  0.03925255  0.15355448  0.54427121    -0.87600
O281        O  0.04307867  0.37562141  0.54745971    -0.87700
O282        O  0.94678178  0.37531188  0.46302394    -0.87400
O283        O  0.94577935  0.15562658  0.45681060    -0.87200
O284        O  0.06960291  0.20347578  0.42470359    -0.87600
O285        O  0.07332074  0.32921510  0.42739303    -0.87000
O286        O  0.03664318  0.15411627  0.45624345    -0.88100
O287        O  0.03612678  0.37524539  0.45661434    -0.87200
O288        O  0.07010161  0.19984106  0.58147688    -0.87600
O289        O  0.91818741  0.20372242  0.42046472    -0.87400
O290        O  0.91207876  0.32765013  0.43133920    -0.87000
O291        O  0.07918127  0.32745151  0.57592287    -0.87400
O292        O  0.11636731  0.25875367  0.46943356    -0.87700
O293        O  0.02759487  0.27522396  0.38186009    -0.89100
Zr294      Zr  0.05051906  0.26373520  0.55812568     2.83100
Zr295      Zr  0.93954606  0.26510939  0.44874592     2.83500
Zr296      Zr  0.99278591  0.18494344  0.50203537     2.84100
Zr297      Zr  0.99470632  0.34343346  0.50514828     2.83400
Zr298      Zr  0.04913196  0.26590181  0.44850971     2.84200
O299        O  0.99461171  0.30515221  0.44939777    -1.09600
O300        O  0.04828836  0.22514459  0.50266108    -1.09100
C301        C  0.13324583  0.25284413  0.50241138     1.05500
C302        C  0.99447044  0.28126595  0.36567964     1.08100
C303        C  0.06260323  0.16412622  0.57165137     1.05700
C304        C  0.07123131  0.36372548  0.56925898     1.06100
C305        C  0.91982719  0.36377076  0.43926379     1.05600
C306        C  0.92308206  0.16758156  0.42936222     1.05200
C307        C  0.06189971  0.16711753  0.43146948     1.05600
C308        C  0.06265310  0.36464052  0.43260366     1.05100
H309        H  0.99353567  0.21040413  0.42304825     0.31800
O310        O  0.99378123  0.22547461  0.44664656    -1.30700
H311        H  0.07374781  0.32077157  0.50311910     0.31800
O312        O  0.05044012  0.30480284  0.50379166    -1.32100
C313        C  0.78558509  0.51332586  0.68482103     0.85400
C314        C  0.80542993  0.47641979  0.66913852    -0.54800
C315        C  0.81915038  0.47950204  0.63196474     0.08400
C316        C  0.80960006  0.51918162  0.61298457     0.19300
C317        C  0.81517063  0.54654513  0.67777234    -0.55500
C318        C  0.82723232  0.55000891  0.64030616     0.08500
C319        C  0.75308742  0.51953762  0.65514612    -0.55100
C320        C  0.76554861  0.52332077  0.61775500     0.09000
H321        H  0.80753367  0.44922695  0.68502058     0.13500
H322        H  0.81981782  0.52311478  0.58278757    -0.00700
H323        H  0.82572584  0.56568637  0.70063923     0.13800
H324        H  0.72256649  0.51904765  0.66265330     0.13600
C325        C  0.19431113  0.51940658  0.69551094     0.85400
C326        C  0.16604738  0.55031328  0.67897134    -0.54800
C327        C  0.16276465  0.55014035  0.63914606     0.08400
C328        C  0.18781461  0.51916404  0.61980640     0.19300
C329        C  0.17811351  0.48094087  0.67885671    -0.55500
C330        C  0.17470523  0.48018397  0.63945420     0.08500
C331        C  0.23205114  0.52804295  0.67425407    -0.55100
C332        C  0.22901633  0.52913010  0.63513427     0.09000
H333        H  0.14984088  0.57062307  0.69622649     0.13500
H334        H  0.18603632  0.51897734  0.58766684    -0.00700
H335        H  0.16719874  0.45726703  0.69711939     0.13800
H336        H  0.25941349  0.53301399  0.68924343     0.13600
C337        C  0.80018346  0.01091946  0.29951180     0.85400
C338        C  0.81452988  0.97531636  0.32293335    -0.54800
C339        C  0.85328034  0.97621263  0.33003600     0.08400
C340        C  0.87468534  0.01205051  0.31363440     0.19300
C341        C  0.81433248  0.04584606  0.32401229    -0.55500
C342        C  0.85330803  0.04668473  0.33162781     0.08500
C343        C  0.82547557  0.01127687  0.26313530    -0.55100
C344        C  0.86417209  0.01153297  0.27049304     0.09000
H345        H  0.79691253  0.95162731  0.33444401     0.13500
H346        H  0.90642258  0.01226401  0.31868835    -0.00700
H347        H  0.79470882  0.06720806  0.33566873     0.13800
H348        H  0.81371549  0.00912406  0.23393635     0.13600
C349        C  0.78930032  0.00450071  0.69072604     0.85400
C350        C  0.80808056  0.04214376  0.67395464    -0.54800
C351        C  0.84762061  0.04173286  0.67188977     0.08400
C352        C  0.86507281  0.00320465  0.68709807     0.19300
C353        C  0.80553544  0.97215706  0.66381973    -0.55500
C354        C  0.84535408  0.97145433  0.66217219     0.08500
C355        C  0.80913884  0.99734109  0.72952856    -0.55100
C356        C  0.84816575  0.99575069  0.72820252     0.09000
H357        H  0.79132660  0.06605160  0.66230401     0.13500
H358        H  0.89717660  0.00331105  0.68576858    -0.00700
H359        H  0.78806666  0.95209341  0.64674902     0.13800
H360        H  0.79318734  0.99364488  0.75650654     0.13600
C361        C  0.80402329  0.50757030  0.29434919     0.85400
C362        C  0.82087632  0.54486843  0.31368143    -0.54800
C363        C  0.81957941  0.54494596  0.35341502     0.08400
C364        C  0.80140533  0.50686441  0.37044785     0.19300
C365        C  0.82790722  0.47500745  0.31318781    -0.55500
C366        C  0.82619904  0.47420637  0.35286738     0.08500
C367        C  0.76357948  0.50245364  0.31129017    -0.55100
C368        C  0.76101272  0.50188062  0.35072315     0.09000
H369        H  0.83700188  0.56735545  0.29818814     0.13500
H370        H  0.80085166  0.50692634  0.40254805    -0.00700
H371        H  0.84530069  0.45484255  0.29679214     0.13800
H372        H  0.73855141  0.49807061  0.29255971     0.13600
C373        C  0.19639025  0.51256446  0.30485844     0.85400
C374        C  0.16159376  0.48607092  0.31625764    -0.54800
C375        C  0.15344422  0.48534708  0.35518690     0.08400
C376        C  0.17934651  0.51347309  0.37873941     0.19300
C377        C  0.18432912  0.55298723  0.32003193    -0.55500
C378        C  0.17342255  0.55326508  0.35825748     0.08500
C379        C  0.22948711  0.50038664  0.33129383    -0.55100
C380        C  0.22097771  0.50067076  0.36971223     0.09000
H381        H  0.14485830  0.46922282  0.29536574     0.13500
H382        H  0.17353401  0.51339029  0.41031815    -0.00700
H383        H  0.18079204  0.57824806  0.30139968     0.13800
H384        H  0.25782679  0.49265184  0.32041138     0.13600
C385        C  0.19481303  0.02486203  0.30475838     0.85400
C386        C  0.17996214  0.05612251  0.33227862    -0.54800
C387        C  0.14082877  0.06008785  0.33151486     0.08400
C388        C  0.11924008  0.03004160  0.30535672     0.19300
C389        C  0.17319543  0.98777664  0.31964182    -0.55500
C390        C  0.13330702  0.99001057  0.32095216     0.08500
C391        C  0.17684311  0.03374786  0.26544152    -0.55100
C392        C  0.13760925  0.03555959  0.26470173     0.09000
H393        H  0.19795468  0.07215330  0.35271954     0.13500
H394        H  0.08758897  0.03303939  0.30406982    -0.00700
H395        H  0.18877614  0.96317546  0.33140727     0.13800
H396        H  0.19431366  0.03703438  0.23937060     0.13600
C397        C  0.17978318  0.00792340  0.70628608     0.85400
C398        C  0.16134566  0.97213007  0.68636098    -0.54800
C399        C  0.12314863  0.97620573  0.67745590     0.08400
C400        C  0.10672006  0.01598195  0.68896200     0.19300
C401        C  0.17179192  0.04069004  0.67637408    -0.55500
C402        C  0.13343081  0.04609860  0.66840676     0.08500
C403        C  0.15394912  0.01693794  0.74109602    -0.55100
C404        C  0.11593739  0.02130323  0.73206797     0.09000
H405        H  0.17769872  0.94757682  0.67599328     0.13500
H406        H  0.07534852  0.01870167  0.68284887    -0.00700
H407        H  0.19468934  0.05687632  0.66163578     0.13800
H408        H  0.16491826  0.01973772  0.77053921     0.13600
O409        O  0.74119068  0.63850509  0.95881564    -0.87500
O410        O  0.75575965  0.47908241  0.11198236    -0.87700
O411        O  0.68696167  0.58760886  0.07343073    -0.89400
O412        O  0.81130095  0.59014933  0.06617464    -0.88100
O413        O  0.85738735  0.55509733  0.03453016    -0.87700
O414        O  0.63803059  0.56041037  0.03659667    -0.89100
O415        O  0.75823214  0.54561969  0.11173654    -0.87600
O416        O  0.74381571  0.63581714  0.02517161    -0.87200
Zr417      Zr  0.74766041  0.56798348  0.04551965     2.84300
O418        O  0.78399318  0.51169586  0.04489183    -1.09100
O419        O  0.70847272  0.57033563  0.99024591    -1.09900
C420        C  0.73932467  0.65432946  0.99282472     1.05600
C421        C  0.76214562  0.51231679  0.12871339     1.05500
C422        C  0.65101833  0.58158534  0.06492179     1.08500
C423        C  0.84665548  0.58187588  0.05830930     1.06300
H424        H  0.68967982  0.51426675  0.06901798     0.31800
O425        O  0.70504030  0.51428558  0.04568022    -1.30100
H426        H  0.80361251  0.59174351  0.99142536     0.31500
O427        O  0.78699004  0.56882535  0.99060689    -1.31800
O428        O  0.72847511  0.39195061  0.02480686    -0.87500
O429        O  0.75169250  0.54898834  0.86790521    -0.89000
O430        O  0.63167842  0.47166334  0.03388306    -0.87600
O431        O  0.85178090  0.46590388  0.03624182    -0.87700
O432        O  0.85786176  0.55868179  0.94753635    -0.87400
O433        O  0.63743397  0.56462397  0.94656473    -0.87200
O434        O  0.67824326  0.44214710  0.90637419    -0.87600
O435        O  0.80239020  0.43026604  0.91485538    -0.87000
O436        O  0.63237386  0.47601425  0.93909158    -0.88100
O437        O  0.85109434  0.46370265  0.94626779    -0.87200
O438        O  0.67740995  0.44083355  0.07118575    -0.87600
O439        O  0.68638786  0.59375869  0.91084782    -0.87400
O440        O  0.81254774  0.59707226  0.91780091    -0.87000
O441        O  0.80314555  0.43011427  0.06544139    -0.87400
O442        O  0.72572499  0.39271010  0.95829141    -0.87700
O443        O  0.74663038  0.48201208  0.86848662    -0.89100
Zr444      Zr  0.74172480  0.45797385  0.04561463     2.83100
Zr445      Zr  0.74812112  0.57120197  0.93523479     2.83500
Zr446      Zr  0.66602443  0.51611846  0.98933408     2.84100
Zr447      Zr  0.82310631  0.51141223  0.98978967     2.83400
Zr448      Zr  0.74129121  0.45880929  0.93489929     2.84200
O449        O  0.78368780  0.51338163  0.93453672    -1.09600
O450        O  0.70239283  0.45943149  0.99007980    -1.09100
C451        C  0.72173848  0.37580410  0.99175242     1.05500
C452        C  0.75128917  0.51524356  0.85116754     1.08100
C453        C  0.64207221  0.44866679  0.06178918     1.05700
C454        C  0.83925893  0.43847249  0.05919456     1.06100
C455        C  0.84790969  0.58792715  0.92581324     1.05600
C456        C  0.65051111  0.58787631  0.91984293     1.05200
C457        C  0.64281877  0.45218543  0.91188431     1.05600
C458        C  0.83854500  0.43739450  0.92238463     1.05100
H459        H  0.69068775  0.51755888  0.91126624     0.31800
O460        O  0.70616592  0.51648044  0.93458576    -1.30700
H461        H  0.79509314  0.43253240  0.99015544     0.31800
O462        O  0.78083427  0.45651683  0.99009546    -1.32100
O463        O  0.25273410  0.63428460  0.97053227    -0.87500
O464        O  0.24014483  0.47482552  0.12306280    -0.87700
O465        O  0.18478321  0.59316301  0.07634563    -0.89400
O466        O  0.31004323  0.58238432  0.08259491    -0.88100
O467        O  0.35600775  0.55378119  0.04497195    -0.87700
O468        O  0.13605310  0.55976971  0.04442521    -0.89100
O469        O  0.24078781  0.54163217  0.12306508    -0.87600
O470        O  0.25574031  0.63323614  0.03683779    -0.87200
Zr471      Zr  0.24632499  0.56523508  0.05681442     2.84300
O472        O  0.28346812  0.50886931  0.05498257    -1.09100
O473        O  0.20615726  0.56755443  0.00238715    -1.09900
C474        C  0.25797184  0.65093421  0.00366571     1.05600
C475        C  0.23926135  0.50824352  0.14047171     1.05500
C476        C  0.14884746  0.58638918  0.06777235     1.08500
C477        C  0.34553653  0.57626519  0.07312129     1.06300
H478        H  0.18840713  0.50976346  0.07970051     0.31800
O479        O  0.20491837  0.51001634  0.05712961    -1.30100
H480        H  0.30313784  0.58848183  0.00112454     0.31500
O481        O  0.28550922  0.56629382  0.00122186    -1.31800
O482        O  0.24888117  0.38620241  0.03214213    -0.87500
O483        O  0.23701107  0.54874604  0.87987706    -0.89000
O484        O  0.13265583  0.46354678  0.04378651    -0.87600
O485        O  0.35293978  0.46501288  0.04391010    -0.87700
O486        O  0.35392274  0.55149839  0.95023579    -0.87400
O487        O  0.13469194  0.55846474  0.95797711    -0.87200
O488        O  0.17669994  0.43189471  0.92636549    -0.87600
O489        O  0.30249165  0.43798059  0.91558076    -0.87000
O490        O  0.13150999  0.46875290  0.95778998    -0.88100
O491        O  0.35144759  0.46530694  0.95237615    -0.87200
O492        O  0.17893163  0.42658054  0.07354018    -0.87600
O493        O  0.18302495  0.59438441  0.92800973    -0.87400
O494        O  0.30701752  0.58519825  0.91781330    -0.87000
O495        O  0.30535748  0.43441562  0.08025655    -0.87400
O496        O  0.24692056  0.38801335  0.96565818    -0.87700
O497        O  0.23340296  0.48195750  0.87772154    -0.89100
Zr498      Zr  0.24252523  0.45354970  0.05519020     2.83100
Zr499      Zr  0.24490128  0.56776695  0.94699953     2.83500
Zr500      Zr  0.16550068  0.51205934  0.00210279     2.84100
Zr501      Zr  0.32226478  0.50991997  0.99910963     2.83400
Zr502      Zr  0.24099062  0.45632383  0.94417720     2.84200
O503        O  0.28192621  0.51149207  0.94454101    -1.09600
O504        O  0.20268742  0.45544594  0.00021961    -1.09100
C505        C  0.25103846  0.36978549  0.99843387     1.05500
C506        C  0.23197659  0.51629423  0.86172841     1.08100
C507        C  0.14333709  0.43475055  0.06564099     1.05700
C508        C  0.34097070  0.44198787  0.07127243     1.06100
C509        C  0.34241768  0.57500675  0.92321414     1.05600
C510        C  0.14720447  0.58564273  0.93475681     1.05200
C511        C  0.14167495  0.44153053  0.93447626     1.05600
C512        C  0.33853213  0.44373750  0.92426479     1.05100
H513        H  0.18667660  0.51357929  0.92444135     0.31800
O514        O  0.20380271  0.51270277  0.94653777    -1.30700
H515        H  0.29748636  0.43243720  0.99844259     0.31800
O516        O  0.28116043  0.45498050  0.99911436    -1.32100
C517        C  0.00341701  0.71037717  0.79712912     0.85400
C518        C  0.03780274  0.68581023  0.81243529    -0.54800
C519        C  0.03898512  0.68219594  0.85214256     0.08400
C520        C  0.00574058  0.70278252  0.87274807     0.19300
C521        C  0.96758458  0.68967165  0.81452824    -0.55500
C522        C  0.96863280  0.68517277  0.85386228     0.08500
C523        C  0.00822514  0.74875942  0.81879305    -0.55100
C524        C  0.00997191  0.74530195  0.85783952     0.09000
H525        H  0.05972098  0.67261870  0.79468799     0.13500
H526        H  0.00627080  0.69964144  0.90482845    -0.00700
H527        H  0.94415235  0.67777852  0.79687532     0.13800
H528        H  0.01049607  0.77689576  0.80415380     0.13600
C529        C  0.99552305  0.31047247  0.80716383     0.85400
C530        C  0.95625729  0.32693948  0.81962682    -0.54800
C531        C  0.95413767  0.33583491  0.85812722     0.08400
C532        C  0.99139587  0.32762490  0.88081564     0.19300
C533        C  0.02518469  0.34215281  0.82072193    -0.55500
C534        C  0.02264980  0.35109377  0.85907189     0.08500
C535        C  0.00298669  0.27601698  0.83440061    -0.55100
C536        C  0.00132181  0.28497498  0.87276139     0.09000
H537        H  0.93328969  0.33368646  0.79922355     0.13500
H538        H  0.98939807  0.33468837  0.91216644    -0.00700
H539        H  0.04735687  0.35606811  0.80327677     0.13800
H540        H  0.00967957  0.24697317  0.82415394     0.13600
C541        C  0.49058821  0.69724893  0.78858947     0.85400
C542        C  0.45676932  0.68014338  0.81226116    -0.54800
C543        C  0.46081357  0.64204765  0.82271041     0.08400
C544        C  0.49821414  0.62348147  0.80726895     0.19300
C545        C  0.52724353  0.68853992  0.81244628    -0.55500
C546        C  0.53130076  0.65016525  0.82220345     0.08500
C547        C  0.49351521  0.66949252  0.75364000    -0.55100
C548        C  0.49793180  0.63109383  0.76307569     0.09000
H549        H  0.43198779  0.69710017  0.82092880     0.13500
H550        H  0.50148971  0.59241950  0.81575992    -0.00700
H551        H  0.54834532  0.71087358  0.82075196     0.13800
H552        H  0.49425628  0.67825947  0.72354004     0.13600
C553        C  0.50335051  0.71072065  0.18860563     0.85400
C554        C  0.53483834  0.69713834  0.16054842    -0.54800
C555        C  0.53734757  0.65760974  0.15805775     0.08400
C556        C  0.50706560  0.63484553  0.18231069     0.19300
C557        C  0.46653172  0.69121292  0.17138250    -0.55500
C558        C  0.46812358  0.65119800  0.16701352     0.08500
C559        C  0.51029616  0.68929835  0.22678349    -0.55100
C560        C  0.51245601  0.64993296  0.22421909     0.09000
H561        H  0.55239519  0.71651363  0.14258477     0.13500
H562        H  0.51010804  0.60288330  0.18101146    -0.00700
H563        H  0.44296014  0.70844890  0.16012594     0.13800
H564        H  0.51302201  0.70456017  0.25425778     0.13600
C565        C  0.98856325  0.32100899  0.20087791     0.85400
C566        C  0.02457924  0.33925989  0.18167381    -0.54800
C567        C  0.02230576  0.34231725  0.14232664     0.08400
C568        C  0.98413648  0.32513184  0.12520900     0.19300
C569        C  0.95495184  0.34646768  0.18546129    -0.55500
C570        C  0.95209838  0.34787278  0.14569236     0.08500
C571        C  0.98156068  0.28180602  0.18106171    -0.55100
C572        C  0.97936258  0.28328422  0.14179650     0.09000
H573        H  0.04893907  0.35103977  0.19812341     0.13500
H574        H  0.98252996  0.32631662  0.09313295    -0.00700
H575        H  0.93555021  0.36279891  0.20339798     0.13800
H576        H  0.97825539  0.25461295  0.19722663     0.13600
C577        C  0.99401708  0.71128745  0.18874050     0.85400
C578        C  0.96295767  0.68086954  0.17558352    -0.54800
C579        C  0.96332560  0.67359486  0.13693291     0.08400
C580        C  0.99352313  0.69701445  0.11413385     0.19300
C581        C  0.03218098  0.69503556  0.17298720    -0.55500
C582        C  0.03224004  0.68666643  0.13394781     0.08500
C583        C  0.98567211  0.74706709  0.16335217    -0.55100
C584        C  0.98555240  0.73983354  0.12451714     0.09000
H585        H  0.94120733  0.66664412  0.19339697     0.13500
H586        H  0.99108764  0.69073349  0.08285660    -0.00700
H587        H  0.05652498  0.68924588  0.19197953     0.13800
H588        H  0.98052763  0.77588259  0.17507414     0.13600
C589        C  0.48752973  0.30910891  0.80246575     0.85400
C590        C  0.52319769  0.33077420  0.81964964    -0.54800
C591        C  0.51949476  0.37052638  0.82348627     0.08400
C592        C  0.48009913  0.38506728  0.80775885     0.19300
C593        C  0.45303534  0.32186551  0.82774739    -0.55500
C594        C  0.44974488  0.36147910  0.83123816     0.08500
C595        C  0.47946756  0.32995499  0.76386953    -0.55100
C596        C  0.47576252  0.36924165  0.76594421     0.09000
H597        H  0.54868487  0.31544426  0.82946362     0.13500
H598        H  0.47643919  0.41708274  0.80938234    -0.00700
H599        H  0.43168645  0.30209122  0.84029336     0.13800
H600        H  0.47608327  0.31466255  0.73651500     0.13600
C601        C  0.49475817  0.32009247  0.19853197     0.85400
C602        C  0.45953329  0.33213281  0.17323161    -0.54800
C603        C  0.45982114  0.37044343  0.16260046     0.08400
C604        C  0.49413092  0.39395377  0.17859554     0.19300
C605        C  0.53047928  0.33386342  0.17524717    -0.55500
C606        C  0.52972660  0.37209371  0.16330248     0.08500
C607        C  0.49252751  0.34804241  0.23279710    -0.55100
C608        C  0.49248825  0.38650480  0.22263620     0.09000
H609        H  0.43487558  0.31379530  0.16573951     0.13500
H610        H  0.49290168  0.42528586  0.17047763    -0.00700
H611        H  0.55404773  0.31452404  0.16868876     0.13800
H612        H  0.48910673  0.33825716  0.26265617     0.13600
O613        O  0.56545835  0.41115021  0.54202215    -0.87500
O614        O  0.45284500  0.49759322  0.37355723    -0.87700
O615        O  0.47938019  0.38330008  0.45322010    -0.89400
O616        O  0.58185800  0.45413931  0.41640434    -0.88100
O617        O  0.60153208  0.51770845  0.42630483    -0.87700
O618        O  0.43319669  0.39426400  0.49948237    -0.89100
O619        O  0.49455056  0.44650258  0.38189227    -0.87600
O620        O  0.55311704  0.39419956  0.47875182    -0.87200
Zr621      Zr  0.51694742  0.44460177  0.44824718     2.84300
O622        O  0.51292520  0.50936897  0.42840608    -1.09100
O623        O  0.49732196  0.43896346  0.51323360    -1.09900
C624        C  0.56740601  0.38770531  0.51252698     1.05600
C625        C  0.47215523  0.46812173  0.36133795     1.05500
C626        C  0.45134947  0.37214666  0.47577150     1.08500
C627        C  0.60633061  0.48341209  0.41286750     1.06300
H628        H  0.43604379  0.45103540  0.43799002     0.31800
O629        O  0.45305435  0.46685245  0.45399086    -1.30100
H630        H  0.58371319  0.47167498  0.48629451     0.31500
O631        O  0.55779366  0.48155523  0.48786827    -1.31800
O632        O  0.42022586  0.59786671  0.44618187    -0.87500
O633        O  0.53589819  0.51422012  0.61348744    -0.89000
O634        O  0.37457265  0.46589828  0.48032773    -0.87600
O635        O  0.54669985  0.57505258  0.40045155    -0.87700
O636        O  0.61569730  0.54123702  0.50243605    -0.87400
O637        O  0.44233421  0.43304664  0.58599446    -0.87200
O638        O  0.40479821  0.55583367  0.56379037    -0.87600
O639        O  0.51308370  0.62754753  0.53333691    -0.87000
O640        O  0.38928930  0.49079271  0.56090845    -0.88100
O641        O  0.55884131  0.61125375  0.48962660    -0.87200
O642        O  0.38297621  0.51294350  0.43326049    -0.87600
O643        O  0.50670365  0.43849903  0.60160374    -0.87400
O644        O  0.60506450  0.49778446  0.55251285    -0.87000
O645        O  0.48228666  0.57018994  0.38492788    -0.87400
O646        O  0.43423846  0.61561382  0.50883430    -0.87700
O647        O  0.49482005  0.56575802  0.60431539    -0.89100
Zr648      Zr  0.45016895  0.53306092  0.43494157     2.83100
Zr649      Zr  0.53786245  0.47707635  0.55235405     2.83500
Zr650      Zr  0.43469587  0.46157887  0.51935035     2.84100
Zr651      Zr  0.55449019  0.54630432  0.46665869     2.83400
Zr652      Zr  0.47249628  0.56623184  0.53772445     2.84200
O653        O  0.53589339  0.54268325  0.53200812    -1.09600
O654        O  0.43153577  0.52706698  0.49956632    -1.09100
C655        C  0.41851103  0.62142986  0.47562853     1.05500
C656        C  0.51746644  0.54464542  0.62515102     1.08100
C657        C  0.36224350  0.48792353  0.45234481     1.05700
C658        C  0.51761249  0.57941141  0.37684651     1.06100
C659        C  0.62689404  0.52045847  0.53171191     1.05600
C660        C  0.47141071  0.42947108  0.60985898     1.05200
C661        C  0.38092594  0.52608031  0.56831756     1.05600
C662        C  0.54324043  0.63579008  0.51199294     1.05100
H663        H  0.46602743  0.50043826  0.58375044     0.31800
O664        O  0.47508119  0.50107602  0.55732695    -1.30700
H665        H  0.49225770  0.59752599  0.46310612     0.31800
O666        O  0.49231799  0.57096420  0.47258138    -1.32100
O667        O  0.07730502  0.94148060  0.05121072    -0.87500
O668        O  0.00195348  0.05554554  0.88224565    -0.87700
O669        O  0.03317050  0.91999804  0.93204162    -0.89400
O670        O  0.10566137  0.02627998  0.95936199    -0.88100
O671        O  0.09742820  0.07684475  0.00210385    -0.87700
O672        O  0.96847226  0.90525885  0.93619199    -0.89100
O673        O  0.04731904  0.00780296  0.89011355    -0.87600
O674        O  0.09351334  0.94915967  0.98713533    -0.87200
Zr675      Zr  0.04492495  0.98760600  0.95688050     2.84300
O676        O  0.02650004  0.05324857  0.96123712    -1.09100
O677        O  0.00458226  0.94903513  0.99556749    -1.09900
C678        C  0.10115389  0.93900130  0.02220571     1.05600
C679        C  0.02928978  0.03336748  0.86987746     1.05500
C680        C  0.00337860  0.89640140  0.92822451     1.08500
C681        C  0.11768684  0.05669117  0.97839153     1.06300
H682        H  0.98051879  0.98517336  0.90957119     0.31800
O683        O  0.98128641  0.99411001  0.93599291    -1.30100
H684        H  0.07759652  0.00932587  0.02978676     0.31500
O685        O  0.05117085  0.00956902  0.02076284    -1.31800
O686        O  0.89944085  0.09257878  0.95286323    -0.87500
O687        O  0.97643341  0.97271037  0.12048648    -0.89000
O688        O  0.91368446  0.96639429  0.90662076    -0.87600
O689        O  0.02953128  0.13499891  0.98947124    -0.87700
O690        O  0.06339221  0.06384196  0.08918027    -0.87400
O691        O  0.94338460  0.89404166  0.01319750    -0.87200
O692        O  0.86552182  0.00408395  0.03861803    -0.87600
O693        O  0.93848217  0.10507925  0.07503165    -0.87000
O694        O  0.87329106  0.95640691  0.99269423    -0.88100
O695        O  0.00282023  0.12051137  0.06715365    -0.87200
O696        O  0.91874839  0.03188680  0.89434828    -0.87600
O697        O  0.99036108  0.90318343  0.05971494    -0.87400
O698        O  0.05233043  0.00010388  0.10760152    -0.87000
O699        O  0.98525638  0.12609996  0.94022988    -0.87400
O700        O  0.88175470  0.08095309  0.01602513    -0.87700
O701        O  0.92775379  0.01676991  0.11139002    -0.89100
Zr702      Zr  0.96193242  0.05918301  0.94146012     2.83100
Zr703      Zr  0.01189134  0.96985205  0.05945661     2.83500
Zr704      Zr  0.94033932  0.95515301  0.97410951     2.84100
Zr705      Zr  0.03160706  0.07362567  0.02583953     2.83400
Zr706      Zr  0.92809975  0.03957426  0.04507246     2.84200
O707        O  0.99223750  0.03443244  0.06540329    -1.09600
O708        O  0.92191934  0.01986389  0.98034998    -1.09100
C709        C  0.87637628  0.09607369  0.98242410     1.05500
C710        C  0.94764850  0.99304368  0.13219774     1.08100
C711        C  0.91024973  0.99697176  0.88401610     1.05700
C712        C  0.00931660  0.14692788  0.96030012     1.06100
C713        C  0.06667615  0.03452022  0.11279341     1.05600
C714        C  0.96575504  0.88191405  0.04096922     1.05200
C715        C  0.85273311  0.97640282  0.01620079     1.05600
C716        C  0.96840583  0.12849550  0.07816684     1.05100
H717        H  0.93026453  0.95796205  0.05573601     0.31800
O718        O  0.94665631  0.97432370  0.03952179    -1.30700
H719        H  0.95883810  0.10557800  0.00647512     0.31800
O720        O  0.96736332  0.07896112  0.00548275    -1.32100
C721        C  0.48401077  0.41633838  0.25187142    -0.07200
C722        C  0.44801569  0.41360806  0.27070920    -0.18300
C723        C  0.44129653  0.43386975  0.30503406     0.10000
C724        C  0.47072947  0.45832858  0.32010758    -0.07100
C725        C  0.50503058  0.46430183  0.29902025    -0.18300
C726        C  0.51254733  0.44270118  0.26572459     0.10000
S727        S  0.39704719  0.42327073  0.33094858    -0.33300
S728        S  0.56059570  0.44663475  0.24563704    -0.33300
H729        H  0.56381603  0.40703787  0.23595047     0.28100
H730        H  0.39401994  0.46047655  0.34748273     0.28000
H731        H  0.42610403  0.39318859  0.26021509     0.18600
H732        H  0.52775283  0.48283891  0.31088174     0.18600
C733        C  0.46756635  0.39199651  0.72983063    -0.07200
C734        C  0.43956475  0.37718169  0.70349194    -0.18300
C735        C  0.43866540  0.38928740  0.66444533     0.10000
C736        C  0.46566696  0.41768525  0.65130886    -0.07100
C737        C  0.49071752  0.43531081  0.67889651    -0.18300
C738        C  0.49211468  0.42283103  0.71765338     0.10000
S739        S  0.40513866  0.36482541  0.63239274    -0.33300
S740        S  0.52824275  0.44379802  0.74974921    -0.33300
H741        H  0.54081747  0.47419155  0.72496355     0.28100
H742        H  0.43259856  0.35996922  0.60289144     0.28000
H743        H  0.42011248  0.35376777  0.71271199     0.18600
H744        H  0.51088433  0.45796902  0.66956462     0.18600
C745        C  0.97915360  0.77139497  0.09587102    -0.07200
C746        C  0.94126045  0.78410033  0.08840436    -0.18300
C747        C  0.93470044  0.81885805  0.06751131     0.10000
C748        C  0.96666556  0.84020882  0.05239753    -0.07100
C749        C  0.00385309  0.82467574  0.05628199    -0.18300
C750        C  0.01067209  0.79213196  0.07947603     0.10000
S751        S  0.88568698  0.83556135  0.06343290    -0.33300
S752        S  0.06055421  0.78197559  0.09063429    -0.33300
H753        H  0.05471843  0.77074579  0.12935777     0.28100
H754        H  0.89472405  0.87529021  0.06911784     0.28000
H755        H  0.91691325  0.76841738  0.10121650     0.18600
H756        H  0.02853383  0.84070519  0.04455902     0.18600
C757        C  0.96475009  0.16940667  0.09175248    -0.07200
C758        C  0.98988019  0.19740243  0.07436378    -0.18300
C759        C  0.99384641  0.23543977  0.08839837     0.10000
C760        C  0.97064198  0.24697521  0.11958877    -0.07100
C761        C  0.94243698  0.22038135  0.13431802    -0.18300
C762        C  0.94002248  0.18154117  0.12159211     0.10000
S763        S  0.03145933  0.26704650  0.06869629    -0.33300
S764        S  0.90793972  0.14841097  0.14717190    -0.33300
H765        H  0.93477226  0.11806390  0.14943887     0.28100
H766        H  0.04562151  0.24115211  0.04078928     0.28000
H767        H  0.00807450  0.18885475  0.05046224     0.18600
H768        H  0.92406723  0.22912550  0.15806868     0.18600
C769        C  0.51965819  0.62598488  0.25994091    -0.07200
C770        C  0.54707719  0.63985866  0.28732851    -0.18300
C771        C  0.54864166  0.62480235  0.32534155     0.10000
C772        C  0.52336616  0.59384075  0.33621372    -0.07100
C773        C  0.49924673  0.57718018  0.30735883    -0.18300
C774        C  0.49650370  0.59317314  0.27003190     0.10000
S775        S  0.58103490  0.64856966  0.35902198    -0.33300
S776        S  0.45989519  0.57272398  0.23851243    -0.33300
H777        H  0.44240901  0.60887737  0.23174958     0.28100
H778        H  0.55388591  0.64972734  0.38933324     0.28000
H779        H  0.56577712  0.66449041  0.27983858     0.18600
H780        H  0.48033479  0.55265205  0.31464358     0.18600
C781        C  0.50851896  0.60257707  0.73244360    -0.07200
C782        C  0.53706379  0.61421093  0.70543241    -0.18300
C783        C  0.54429069  0.59242666  0.67225832     0.10000
C784        C  0.52240145  0.55816254  0.66527098    -0.07100
C785        C  0.49621824  0.54452411  0.69369196    -0.18300
C786        C  0.48947753  0.56614852  0.72759729     0.10000
S787        S  0.57877136  0.61218030  0.63769311    -0.33300
S788        S  0.45339845  0.54907464  0.76171969    -0.33300
H789        H  0.45360243  0.50985509  0.74973932     0.28100
H790        H  0.58616400  0.57688865  0.61868015     0.28000
H791        H  0.55298967  0.64143519  0.70951468     0.18600
H792        H  0.47848127  0.51887708  0.68775896     0.18600
C793        C  0.01298115  0.18773704  0.94821748    -0.07200
C794        C  0.04421745  0.19869734  0.92466079    -0.18300
C795        C  0.04295770  0.23281735  0.90240914     0.10000
C796        C  0.00934600  0.25582665  0.90322102    -0.07100
C797        C  0.98007494  0.24705900  0.93004829    -0.18300
C798        C  0.98154018  0.21298502  0.95256984     0.10000
S799        S  0.08428831  0.24441390  0.87234005    -0.33300
S800        S  0.94192331  0.20016619  0.98453772    -0.33300
H801        H  0.92039349  0.23409479  0.97828101     0.28100
H802        H  0.07861268  0.28493112  0.87177475     0.28000
H803        H  0.06850923  0.17936267  0.92164789     0.18600
H804        H  0.95472463  0.26517142  0.93103355     0.18600
C805        C  0.01524762  0.78045529  0.88200693    -0.07200
C806        C  0.98655751  0.78752844  0.90900232    -0.18300
C807        C  0.98229191  0.82452912  0.92492727     0.10000
C808        C  0.00860491  0.85559608  0.91456040    -0.07100
C809        C  0.03969108  0.84719993  0.89008419    -0.18300
C810        C  0.04322098  0.81015349  0.87354012     0.10000
S811        S  0.94088881  0.83045137  0.95606160    -0.33300
S812        S  0.08344047  0.80326326  0.84103559    -0.33300
H813        H  0.08380116  0.76233690  0.84342578     0.28100
H814        H  0.93549937  0.79088224  0.96624031     0.28000
H815        H  0.96513938  0.76478715  0.91496846     0.18600
H816        H  0.06047284  0.87002051  0.88243838     0.18600
C817        C  0.05079129  0.37698677  0.87896292    -0.07200
C818        C  0.06705947  0.36309951  0.91352882    -0.18300
C819        C  0.09610286  0.38409028  0.93259595     0.10000
C820        C  0.11036912  0.41917654  0.91616229    -0.07100
C821        C  0.09395554  0.43356382  0.88194431    -0.18300
C822        C  0.06360374  0.41339606  0.86360026     0.10000
S823        S  0.11415912  0.36393265  0.97724813    -0.33300
S824        S  0.04190186  0.43657108  0.82194447    -0.33300
H825        H  0.00485327  0.41968356  0.82684179     0.28100
H826        H  0.12235263  0.39995341  0.99477606     0.28000
H827        H  0.05762729  0.33523758  0.92556509     0.18600
H828        H  0.10461210  0.46082971  0.86969089     0.18600
C829        C  0.05170680  0.36566430  0.12018898    -0.07200
C830        C  0.08569233  0.34760598  0.10822263    -0.18300
C831        C  0.11563561  0.36875496  0.08963825     0.10000
C832        C  0.11207251  0.40957104  0.08316013    -0.07100
C833        C  0.07765002  0.42735872  0.09474618    -0.18300
C834        C  0.04816195  0.40630476  0.11393208     0.10000
S835        S  0.15697168  0.34115244  0.07483432    -0.33300
S836        S  0.00796413  0.43383555  0.13157620    -0.33300
H837        H  0.00529234  0.41457697  0.16752575     0.28100
H838        H  0.16616026  0.36349654  0.04179615     0.28000
H839        H  0.08911700  0.31669124  0.11374377     0.18600
H840        H  0.07439384  0.45850348  0.09052582     0.18600
C841        C  0.06332334  0.66241683  0.11570082    -0.07200
C842        C  0.08227264  0.63479318  0.13940878    -0.18300
C843        C  0.11017983  0.60976283  0.12473660     0.10000
C844        C  0.11978762  0.61172773  0.08519023    -0.07100
C845        C  0.10119492  0.63855704  0.06114191    -0.18300
C846        C  0.07325224  0.66390989  0.07560613     0.10000
S847        S  0.13183842  0.57539524  0.15785415    -0.33300
S848        S  0.05329940  0.69863285  0.04182866    -0.33300
H849        H  0.06173075  0.67804834  0.00773081     0.28100
H850        H  0.13848528  0.54601121  0.13048277     0.28000
H851        H  0.07447955  0.63132733  0.16962027     0.18600
H852        H  0.10928642  0.64009648  0.03080152     0.18600
C853        C  0.06816422  0.65856577  0.87307137    -0.07200
C854        C  0.07351231  0.61995997  0.86119270    -0.18300
C855        C  0.09770344  0.59482212  0.88161246     0.10000
C856        C  0.11857693  0.60908306  0.91400944    -0.07100
C857        C  0.11462018  0.64809406  0.92508052    -0.18300
C858        C  0.08939918  0.67294457  0.90527032     0.10000
S859        S  0.10037947  0.54542925  0.86384188    -0.33300
S860        S  0.08681392  0.72330468  0.92001945    -0.33300
H861        H  0.11074197  0.72053154  0.95296315     0.28100
H862        H  0.12979906  0.53157944  0.88793936     0.28000
H863        H  0.05820188  0.60898673  0.83596841     0.18600
H864        H  0.13159508  0.65905327  0.94927827     0.18600
C865        C  0.36718094  0.42345347  0.90019425    -0.07200
C866        C  0.39017102  0.39491330  0.91756345    -0.18300
C867        C  0.41631141  0.37322616  0.89555960     0.10000
C868        C  0.41972854  0.38043026  0.85522312    -0.07100
C869        C  0.39678439  0.40912969  0.83797376    -0.18300
C870        C  0.37065698  0.43059640  0.85994779     0.10000
S871        S  0.44681926  0.33835876  0.91975790    -0.33300
S872        S  0.34364232  0.46788738  0.83548062    -0.33300
H873        H  0.34708140  0.49459353  0.86618375     0.28100
H874        H  0.43544704  0.34688114  0.95790515     0.28000
H875        H  0.38725787  0.38940656  0.94839883     0.18600
H876        H  0.39973021  0.41532234  0.80723483     0.18600
C877        C  0.43179078  0.62215987  0.84800521    -0.07200
C878        C  0.39490557  0.61380743  0.83288618    -0.18300
C879        C  0.36523407  0.59835284  0.85636429     0.10000
C880        C  0.37233240  0.59125666  0.89636981    -0.07100
C881        C  0.40931546  0.59987296  0.91134608    -0.18300
C882        C  0.43873495  0.61582507  0.88783992     0.10000
S883        S  0.31950441  0.58790160  0.83293720    -0.33300
S884        S  0.48406499  0.63029223  0.90970733    -0.33300
H885        H  0.47250401  0.62591137  0.94861515     0.28100
H886        H  0.31274730  0.55247157  0.85261508     0.28000
H887        H  0.38916919  0.61950638  0.80246161     0.18600
H888        H  0.41488186  0.59501263  0.94190467     0.18600
C889        C  0.43712254  0.62874380  0.14452785    -0.07200
C890        C  0.39912211  0.64312083  0.14516000    -0.18300
C891        C  0.36979397  0.62862413  0.12074945     0.10000
C892        C  0.37657660  0.59579124  0.09701548    -0.07100
C893        C  0.41387941  0.58019876  0.09727860    -0.18300
C894        C  0.44427375  0.59652154  0.11958112     0.10000
S895        S  0.32556277  0.65581695  0.11939856    -0.33300
S896        S  0.49138394  0.57547898  0.11355048    -0.33300
H897        H  0.48404422  0.55646929  0.07814003     0.28100
H898        H  0.32336988  0.65603386  0.07860184     0.28000
H899        H  0.39217933  0.66722525  0.16391615     0.18600
H900        H  0.41942748  0.55485337  0.07966580     0.18600
C901        C  0.37073061  0.42373812  0.09501458    -0.07200
C902        C  0.38942212  0.39101127  0.08053056    -0.18300
C903        C  0.41886916  0.37328588  0.10172564     0.10000
C904        C  0.42919982  0.38807435  0.13863025    -0.07100
C905        C  0.41031013  0.42083095  0.15304888    -0.18300
C906        C  0.38143167  0.43905014  0.13147215     0.10000
S907        S  0.44335710  0.33331112  0.07925924    -0.33300
S908        S  0.35944165  0.48169683  0.15191930    -0.33300
H909        H  0.35213690  0.50082701  0.11657946     0.28100
H910        H  0.48002042  0.34394047  0.09375818     0.28000
H911        H  0.38151804  0.37969424  0.05222416     0.18600
H912        H  0.41822895  0.43238495  0.18124693     0.18600
C913        C  0.61121622  0.43000794  0.08545836    -0.07200
C914        C  0.60229087  0.39037978  0.08011003    -0.18300
C915        C  0.57510778  0.37068268  0.10392148     0.10000
C916        C  0.55836387  0.39058134  0.13578271    -0.07100
C917        C  0.56714939  0.43048680  0.14021938    -0.18300
C918        C  0.59218870  0.45039578  0.11495181     0.10000
S919        S  0.56049535  0.32150638  0.09086924    -0.33300
S920        S  0.59892447  0.50184644  0.12226243    -0.33300
H921        H  0.59509408  0.51149812  0.08283107     0.28100
H922        H  0.58319398  0.31844928  0.05722864     0.28000
H923        H  0.61632153  0.37508853  0.05675470     0.18600
H924        H  0.55417434  0.44682125  0.16335625     0.18600
C925        C  0.62238169  0.60072840  0.08941819    -0.07200
C926        C  0.59291197  0.62148247  0.07098055    -0.18300
C927        C  0.56504843  0.64094630  0.09238811     0.10000
C928        C  0.56594777  0.63855115  0.13334232    -0.07100
C929        C  0.59540120  0.61798014  0.15181436    -0.18300
C930        C  0.62411314  0.59967556  0.13047962     0.10000
S931        S  0.52941570  0.66789396  0.06539678    -0.33300
S932        S  0.66169232  0.57578357  0.15788499    -0.33300
H933        H  0.66975886  0.54653779  0.13090324     0.28100
H934        H  0.49958455  0.66477848  0.09276187     0.28000
H935        H  0.59197189  0.62304845  0.03957220     0.18600
H936        H  0.59630613  0.61664530  0.18324472     0.18600
C937        C  0.62198985  0.60690355  0.89519303    -0.07200
C938        C  0.61646297  0.59131876  0.85819505    -0.18300
C939        C  0.58768760  0.60525067  0.83353351     0.10000
C940        C  0.56415934  0.63604410  0.84592978    -0.07100
C941        C  0.57144140  0.65326373  0.88225868    -0.18300
C942        C  0.59949596  0.63841756  0.90747357     0.10000
S943        S  0.58251317  0.58374367  0.78622283    -0.33300
S944        S  0.60425601  0.66013530  0.95492379    -0.33300
H945        H  0.64198868  0.64777519  0.96303589     0.28100
H946        H  0.61787423  0.56400213  0.78598354     0.28000
H947        H  0.63414393  0.56722120  0.84909643     0.18600
H948        H  0.55410123  0.67748605  0.89166795     0.18600
C949        C  0.61185240  0.43460013  0.88550593    -0.07200
C950        C  0.57265345  0.44220621  0.89295154    -0.18300
C951        C  0.54217035  0.42407836  0.87193800     0.10000
C952        C  0.55027957  0.39565182  0.84331833    -0.07100
C953        C  0.58942029  0.38953878  0.83443739    -0.18300
C954        C  0.61982231  0.40943907  0.85375642     0.10000
S955        S  0.49343448  0.43654049  0.88468739    -0.33300
S956        S  0.66775372  0.40195287  0.83494748    -0.33300
H957        H  0.67708090  0.44212301  0.83351825     0.28100
H958        H  0.50264064  0.47286199  0.90156391     0.28000
H959        H  0.56553228  0.46195045  0.91616031     0.18600
H960        H  0.59649217  0.36942062  0.81146743     0.18600
C961        C  0.86829218  0.41469240  0.08034761    -0.07200
C962        C  0.85740904  0.39629008  0.11538656    -0.18300
C963        C  0.88308370  0.37282567  0.13619601     0.10000
C964        C  0.92202848  0.37001973  0.12381061    -0.07100
C965        C  0.93268665  0.38816581  0.08863599    -0.18300
C966        C  0.90625876  0.40907099  0.06631787     0.10000
S967        S  0.86283582  0.34440107  0.17566033    -0.33300
S968        S  0.92239209  0.42506114  0.01901589    -0.33300
H969        H  0.88836339  0.41220458  0.00009189     0.28100
H970        H  0.88467760  0.31103893  0.16795949     0.28000
H971        H  0.82814496  0.39908466  0.12615843     0.18600
H972        H  0.96188156  0.38575573  0.07775369     0.18600
C973        C  0.92352224  0.36073883  0.87405008    -0.07200
C974        C  0.93447607  0.39821534  0.88638884    -0.18300
C975        C  0.90718789  0.42465730  0.89939459     0.10000
C976        C  0.86786245  0.41267539  0.90314816    -0.07100
C977        C  0.85684147  0.37515121  0.89002875    -0.18300
C978        C  0.88413341  0.34930692  0.87524429     0.10000
S979        S  0.92438186  0.47393928  0.90764659    -0.33300
S980        S  0.86713119  0.30195244  0.85933217    -0.33300
H981        H  0.90090235  0.28187688  0.86935534     0.28100
H982        H  0.89191756  0.49120405  0.89028258     0.28000
H983        H  0.96450314  0.40764997  0.88433876     0.18600
H984        H  0.82690530  0.36540354  0.89209971     0.18600
C985        C  0.87945445  0.61344134  0.90932065    -0.07200
C986        C  0.91078828  0.59607347  0.89067692    -0.18300
C987        C  0.94011825  0.61879494  0.87269631     0.10000
C988        C  0.93933220  0.66003338  0.87458307    -0.07100
C989        C  0.90845688  0.67748235  0.89378807    -0.18300
C990        C  0.87867209  0.65483936  0.91103032     0.10000
S991        S  0.97776615  0.59474522  0.84633183    -0.33300
S992        S  0.84097665  0.68073883  0.93546987    -0.33300
H993        H  0.83558385  0.65281558  0.96499198     0.28100
H994        H  0.96178398  0.55673759  0.84853380     0.28000
H995        H  0.91160807  0.56456177  0.88917918     0.18600
H996        H  0.90730804  0.70904584  0.89500005     0.18600
C997        C  0.93405769  0.64871910  0.11803366    -0.07200
C998        C  0.89960438  0.66625611  0.10696620    -0.18300
C999        C  0.87137077  0.64558867  0.08634924     0.10000
C1000       C  0.87695492  0.60564320  0.07776150    -0.07100
C1001       C  0.91190151  0.58818311  0.08868472    -0.18300
C1002       C  0.94058630  0.60937921  0.10869375     0.10000
S1003       S  0.83030228  0.67302627  0.06988631    -0.33300
S1004       S  0.98490366  0.58493094  0.12077339    -0.33300
H1005       H  0.99414870  0.60707289  0.15380405     0.28100
H1006       H  0.82823329  0.65505482  0.03339836     0.28000
H1007       H  0.89523469  0.69681030  0.11337801     0.18600
H1008       H  0.91669163  0.55775780  0.08208727     0.18600
C1009       C  0.08655988  0.02998236  0.76180653    -0.07200
C1010       C  0.05891077  0.00105825  0.77074145    -0.18300
C1011       C  0.03655251  0.00347127  0.80433409     0.10000
C1012       C  0.04136967  0.03597284  0.82917728    -0.07100
C1013       C  0.06622749  0.06674959  0.81818464    -0.18300
C1014       C  0.08874977  0.06408661  0.78465298     0.10000
S1015       S  0.00517720  0.96234678  0.81572803    -0.33300
S1016       S  0.12062301  0.10438246  0.77282185    -0.33300
H1017       H  0.11180892  0.10205992  0.73306189     0.28100
H1018       H  0.98040802  0.98283149  0.84007214     0.28000
H1019       H  0.05654665  0.97517926  0.75292953     0.18600
H1020       H  0.07009499  0.09169804  0.83710829     0.18600
C1021       C  0.11718832  0.03703551  0.22626543    -0.07200
C1022       C  0.13185554  0.01287285  0.19695648    -0.18300
C1023       C  0.11825572  0.01436854  0.15893623     0.10000
C1024       C  0.08792285  0.03953548  0.14937702    -0.07100
C1025       C  0.07238760  0.06327973  0.17817974    -0.18300
C1026       C  0.08653809  0.06249014  0.21642231     0.10000
S1027       S  0.14061445  0.98296672  0.12385201    -0.33300
S1028       S  0.06301960  0.09426024  0.25001460    -0.33300
H1029       H  0.09334011  0.09581976  0.27622299     0.28100
H1030       H  0.13341998  0.00672706  0.09129340     0.28000
H1031       H  0.15463952  0.99253747  0.20362536     0.18600
H1032       H  0.04803437  0.08157160  0.17112422     0.18600
C1033       C  0.23375062  0.50857812  0.18341354    -0.07200
C1034       C  0.22106944  0.47433593  0.20240008    -0.18300
C1035       C  0.21109980  0.47428690  0.24187137     0.10000
C1036       C  0.20864897  0.51030628  0.26210676    -0.07100
C1037       C  0.22470676  0.54374197  0.24389093    -0.18300
C1038       C  0.23858471  0.54287815  0.20582402     0.10000
S1039       S  0.20450545  0.42746226  0.26570836    -0.33300
S1040       S  0.26514720  0.58560135  0.18918598    -0.33300
H1041       H  0.29354731  0.56421698  0.16969280     0.28100
H1042       H  0.22408450  0.40536083  0.23787615     0.28000
H1043       H  0.21920551  0.44722230  0.18646426     0.18600
H1044       H  0.22893584  0.57047179  0.25997772     0.18600
C1045       C  0.32097784  0.48588839  0.44101679    -0.07200
C1046       C  0.30770635  0.45453337  0.41834048    -0.18300
C1047       C  0.27274876  0.45674866  0.39762694     0.10000
C1048       C  0.25083658  0.49130253  0.39919854    -0.07100
C1049       C  0.26224927  0.52086565  0.42478920    -0.18300
C1050       C  0.29695382  0.51859963  0.44561174     0.10000
S1051       S  0.25857732  0.41531931  0.36840133    -0.33300
S1052       S  0.31007145  0.55996083  0.47526125    -0.33300
H1053       H  0.33866949  0.54153793  0.49728125     0.28100
H1054       H  0.21892712  0.42380285  0.36679272     0.28000
H1055       H  0.32577159  0.42926407  0.41478957     0.18600
H1056       H  0.24552279  0.54727537  0.42638042     0.18600
C1057       C  0.77592420  0.51186092  0.17009809    -0.07200
C1058       C  0.77511634  0.47622405  0.19052098    -0.18300
C1059       C  0.78651166  0.47344895  0.22957622     0.10000
C1060       C  0.80042795  0.50715597  0.24961049    -0.07100
C1061       C  0.80271320  0.54250780  0.22843075    -0.18300
C1062       C  0.79104353  0.54535915  0.18945637     0.10000
S1063       S  0.78067397  0.42653847  0.25347799    -0.33300
S1064       S  0.79700549  0.59237741  0.16561058    -0.33300
H1065       H  0.80012684  0.61532963  0.19922589     0.28100
H1066       H  0.75628206  0.40892984  0.22564273     0.28000
H1067       H  0.76465755  0.45014995  0.17603303     0.18600
H1068       H  0.81206824  0.56902620  0.24235562     0.18600
C1069       C  0.72166805  0.49592923  0.36915892    -0.07200
C1070       C  0.68968190  0.51204027  0.34958379    -0.18300
C1071       C  0.65151118  0.50342906  0.36018259     0.10000
C1072       C  0.64379683  0.47968787  0.39283986    -0.07100
C1073       C  0.67532981  0.46507139  0.41393514    -0.18300
C1074       C  0.71403745  0.47221436  0.40227008     0.10000
S1075       S  0.61364766  0.52606589  0.33222036    -0.33300
S1076       S  0.75248425  0.45109060  0.43051492    -0.33300
H1077       H  0.72941716  0.43563822  0.46067939     0.28100
H1078       H  0.58420618  0.49953460  0.34318306     0.28000
H1079       H  0.69427450  0.53180319  0.32532897     0.18600
H1080       H  0.66964974  0.44996010  0.44096078     0.18600
C1081       C  0.87039397  0.98913899  0.76454086    -0.07200
C1082       C  0.89644360  0.01834962  0.77529909    -0.18300
C1083       C  0.90971791  0.02158074  0.81348967     0.10000
C1084       C  0.89799242  0.99325836  0.84225463    -0.07100
C1085       C  0.87472441  0.96155914  0.83015360    -0.18300
C1086       C  0.86057199  0.95935441  0.79185496     0.10000
S1087       S  0.94013827  0.06387470  0.82370632    -0.33300
S1088       S  0.82954623  0.91814672  0.77994087    -0.33300
H1089       H  0.83451661  0.92030926  0.73953830     0.28100
H1090       H  0.94689038  0.07652338  0.78538345     0.28000
H1091       H  0.90390259  0.04075000  0.75420995     0.18600
H1092       H  0.86629019  0.93913818  0.85091472     0.18600
C1093       C  0.93645677  0.99114074  0.17298886    -0.07200
C1094       C  0.94172098  0.02551628  0.19449108    -0.18300
C1095       C  0.91964453  0.03239669  0.22753390     0.10000
C1096       C  0.89232888  0.00394170  0.23965351    -0.07100
C1097       C  0.88970693  0.96802782  0.22023595    -0.18300
C1098       C  0.91159834  0.96127629  0.18698979     0.10000
S1099       S  0.92513604  0.07927182  0.25065349    -0.33300
S1100       S  0.90333388  0.91611001  0.16135170    -0.33300
H1101       H  0.94103484  0.91357057  0.14651806     0.28100
H1102       H  0.88583214  0.08360066  0.25984934     0.28000
H1103       H  0.96057911  0.04864703  0.18343735     0.18600
H1104       H  0.86914576  0.94584163  0.23005506     0.18600
C1105       C  0.20249811  0.51771961  0.73932713    -0.07200
C1106       C  0.19217467  0.54888921  0.76334919    -0.18300
C1107       C  0.20236660  0.55007302  0.80273490     0.10000
C1108       C  0.22280566  0.51861073  0.81955389    -0.07100
C1109       C  0.23400786  0.48793258  0.79565407    -0.18300
C1110       C  0.22552940  0.48769745  0.75585869     0.10000
S1111       S  0.18906166  0.59263187  0.83024541    -0.33300
S1112       S  0.24636718  0.44951849  0.72677064    -0.33300
H1113       H  0.27211153  0.43519471  0.75492319     0.28100
H1114       H  0.16237497  0.60787075  0.80351842     0.28000
H1115       H  0.17773372  0.57373651  0.75131089     0.18600
H1116       H  0.25042331  0.46433511  0.80814239     0.18600
C1117       C  0.26383782  0.53644989  0.61099869    -0.07200
C1118       C  0.27258424  0.50756033  0.58479644    -0.18300
C1119       C  0.30998160  0.50346328  0.57073879     0.10000
C1120       C  0.33993524  0.53106255  0.58123385    -0.07100
C1121       C  0.32976097  0.56288377  0.60434393    -0.18300
C1122       C  0.29207594  0.56584826  0.61933439     0.10000
S1123       S  0.31746784  0.46000385  0.54239426    -0.33300
S1124       S  0.28172552  0.60755258  0.64900633    -0.33300
H1125       H  0.24150425  0.60629473  0.64258321     0.28100
H1126       H  0.27904516  0.45455334  0.52955883     0.28000
H1127       H  0.25077338  0.48556075  0.57830663     0.18600
H1128       H  0.35150239  0.58467600  0.61204438     0.18600
C1129       C  0.75846097  0.51395549  0.80892157    -0.07200
C1130       C  0.74151295  0.54139011  0.78419009    -0.18300
C1131       C  0.74889723  0.54155044  0.74401557     0.10000
C1132       C  0.77278664  0.51235750  0.72759044    -0.07100
C1133       C  0.78982760  0.48541211  0.75321148    -0.18300
C1134       C  0.78345442  0.48621533  0.79302738     0.10000
S1135       S  0.72945627  0.58101124  0.71529155    -0.33300
S1136       S  0.81181987  0.45351675  0.82225449    -0.33300
H1137       H  0.82153328  0.48187927  0.85019638     0.28100
H1138       H  0.70378141  0.59515054  0.74331939     0.28000
H1139       H  0.72314922  0.56331806  0.79662445     0.18600
H1140       H  0.81111675  0.46515858  0.74342237     0.18600
C1141       C  0.73745135  0.52457904  0.58547782    -0.07200
C1142       C  0.72208178  0.48884432  0.57269152    -0.18300
C1143       C  0.68776670  0.48718285  0.55116113     0.10000
C1144       C  0.66785399  0.52198811  0.54324268    -0.07100
C1145       C  0.68501885  0.55798846  0.55279576    -0.18300
C1146       C  0.71977393  0.55959179  0.57372536     0.10000
S1147       S  0.66840798  0.44032475  0.53589650    -0.33300
S1148       S  0.73845135  0.60686622  0.58718521    -0.33300
H1149       H  0.77737751  0.59574744  0.58553192     0.28100
H1150       H  0.70078400  0.41825903  0.54641902     0.28000
H1151       H  0.73542411  0.46203958  0.58211569     0.18600
H1152       H  0.66999857  0.58478017  0.54636606     0.18600
C1153       C  0.99454156  0.29404263  0.32459817    -0.07200
C1154       C  0.02114146  0.27798702  0.29896112    -0.18300
C1155       C  0.02153110  0.28841709  0.25954716     0.10000
C1156       C  0.99337423  0.31464319  0.24470311    -0.07100
C1157       C  0.96851383  0.33237663  0.27130161    -0.18300
C1158       C  0.96953713  0.32316981  0.31074202     0.10000
S1159       S  0.05779196  0.26694836  0.22872271    -0.33300
S1160       S  0.94002440  0.35190555  0.34209870    -0.33300
H1161       H  0.96855416  0.35531942  0.37116231     0.28100
H1162       H  0.07615378  0.24435370  0.25730179     0.28000
H1163       H  0.04140988  0.25681659  0.30987589     0.18600
H1164       H  0.94833579  0.35420562  0.26228068     0.18600
C1165       C  0.99804531  0.27843295  0.68464623    -0.07200
C1166       C  0.96982749  0.26205956  0.70928049    -0.18300
C1167       C  0.96917444  0.27092916  0.74900437     0.10000
C1168       C  0.99664696  0.29815447  0.76450072    -0.07100
C1169       C  0.02579783  0.31277903  0.73960641    -0.18300
C1170       C  0.02652291  0.30381816  0.70040722     0.10000
S1171       S  0.93311705  0.24675182  0.77916455    -0.33300
S1172       S  0.06360728  0.32820045  0.67206643    -0.33300
H1173       H  0.03791915  0.33789622  0.64215099     0.28100
H1174       H  0.92243299  0.21745249  0.75255422     0.28000
H1175       H  0.94823677  0.24219371  0.69731434     0.18600
H1176       H  0.04873033  0.33173738  0.74952952     0.18600
C1177       C  0.89565531  0.39352418  0.41892392    -0.07200
C1178       C  0.85961019  0.38143270  0.40327455    -0.18300
C1179       C  0.83633670  0.40677098  0.38175196     0.10000
C1180       C  0.84849460  0.44600301  0.37640876    -0.07100
C1181       C  0.88439179  0.45821112  0.39152458    -0.18300
C1182       C  0.90813753  0.43265564  0.41226364     0.10000
S1183       S  0.79271815  0.38603041  0.36053351    -0.33300
S1184       S  0.95511259  0.45138413  0.42643462    -0.33300
H1185       H  0.97513779  0.41976399  0.41070595     0.28100
H1186       H  0.77452427  0.42066096  0.34982607     0.28000
H1187       H  0.84960810  0.35154108  0.40707364     0.18600
H1188       H  0.89510321  0.48743682  0.38527250     0.18600
C1189       C  0.89484502  0.39070613  0.58668338    -0.07200
C1190       C  0.87031280  0.41073649  0.56126264    -0.18300
C1191       C  0.84447095  0.43887192  0.57475270     0.10000
C1192       C  0.84427145  0.44858455  0.61474320    -0.07100
C1193       C  0.86935595  0.42823176  0.63988685    -0.18300
C1194       C  0.89389201  0.39917130  0.62652330     0.10000
S1195       S  0.81014220  0.45879523  0.54073705    -0.33300
S1196       S  0.92319981  0.37405031  0.66186745    -0.33300
H1197       H  0.95398939  0.36528300  0.63702212     0.28100
H1198       H  0.82729666  0.44484125  0.50664836     0.28000
H1199       H  0.87059765  0.40321545  0.53077492     0.18600
H1200       H  0.87046578  0.43527395  0.67045402     0.18600
C1201       C  0.09711416  0.39375987  0.58755537    -0.07200
C1202       C  0.13742520  0.39127461  0.58207890    -0.18300
C1203       C  0.16354391  0.41873690  0.59833338     0.10000
C1204       C  0.14934064  0.44976288  0.62073589    -0.07100
C1205       C  0.10927731  0.45126044  0.62746228    -0.18300
C1206       C  0.08305726  0.42449437  0.61062508     0.10000
S1207       S  0.21445362  0.41161356  0.59036408    -0.33300
S1208       S  0.03233339  0.43188537  0.62032254    -0.33300
H1209       H  0.01854419  0.39401806  0.61283469     0.28100
H1210       H  0.22752817  0.42996899  0.62445199     0.28000
H1211       H  0.14871054  0.36769612  0.56484503     0.18600
H1212       H  0.09813983  0.47439399  0.64539720     0.18600
C1213       C  0.08304696  0.39577782  0.41017946    -0.07200
C1214       C  0.08363714  0.43383186  0.42504335    -0.18300
C1215       C  0.10367876  0.46419828  0.40631941     0.10000
C1216       C  0.12608423  0.45634045  0.37301282    -0.07100
C1217       C  0.12471540  0.41844768  0.35764153    -0.18300
C1218       C  0.10258875  0.38868001  0.37487680     0.10000
S1219       S  0.09643550  0.51239548  0.42489630    -0.33300
S1220       S  0.09915274  0.34323640  0.34896161    -0.33300
H1221       H  0.05875733  0.34075866  0.35332997     0.28100
H1222       H  0.09039515  0.52812305  0.38769862     0.28000
H1223       H  0.06793115  0.44029908  0.45135218     0.18600
H1224       H  0.14121545  0.41161537  0.33196607     0.18600
C1225       C  0.08181096  0.13293327  0.59412203    -0.07200
C1226       C  0.11653588  0.14198548  0.61366604    -0.18300
C1227       C  0.13425727  0.11504515  0.63827850     0.10000
C1228       C  0.11817132  0.07671798  0.64185541    -0.07100
C1229       C  0.08446523  0.06735773  0.62075741    -0.18300
C1230       C  0.06528456  0.09505362  0.59840031     0.10000
S1231       S  0.17574778  0.13331043  0.66503238    -0.33300
S1232       S  0.01853423  0.08143504  0.57816655    -0.33300
H1233       H  0.01167763  0.04825732  0.60158131     0.28100
H1234       H  0.16793455  0.11295401  0.69954481     0.28000
H1235       H  0.12939768  0.17096030  0.61089910     0.18600
H1236       H  0.07231356  0.03813603  0.62207051     0.18600
C1237       C  0.87000945  0.07195150  0.64914132    -0.07200
C1238       C  0.88049093  0.06328056  0.61080934    -0.18300
C1239       C  0.89777128  0.09151841  0.58614279     0.10000
C1240       C  0.90651314  0.12963590  0.60016221    -0.07100
C1241       C  0.89612624  0.13800277  0.63879839    -0.18300
C1242       C  0.87797976  0.10999916  0.66313399     0.10000
S1243       S  0.90518308  0.07750949  0.53641071    -0.33300
S1244       S  0.86581404  0.12517725  0.71163855    -0.33300
H1245       H  0.85904268  0.08813608  0.72800782     0.28100
H1246       H  0.89159481  0.11276863  0.52078067     0.28000
H1247       H  0.87357779  0.03457018  0.59937265     0.18600
H1248       H  0.90242403  0.16673690  0.65045453     0.18600
C1249       C  0.90263850  0.13719516  0.40551620    -0.07200
C1250       C  0.91427560  0.09832629  0.40961197    -0.18300
C1251       C  0.89875278  0.06832823  0.38665930     0.10000
C1252       C  0.87168950  0.07710612  0.35704903    -0.07100
C1253       C  0.85951847  0.11587157  0.35320644    -0.18300
C1254       C  0.87348529  0.14551407  0.37765531     0.10000
S1255       S  0.91355208  0.01937286  0.39773618    -0.33300
S1256       S  0.85102388  0.19237914  0.37268840    -0.33300
H1257       H  0.84531541  0.19659646  0.41287195     0.28100
H1258       H  0.92347541  0.02614097  0.43679105     0.28000
H1259       H  0.93611541  0.09105139  0.43089210     0.18600
H1260       H  0.83815192  0.12311361  0.33137445     0.18600
C1261       C  0.08339901  0.13902815  0.40754713    -0.07200
C1262       C  0.09756493  0.15223080  0.37144131    -0.18300
C1263       C  0.11817519  0.12801795  0.34696451     0.10000
C1264       C  0.12180237  0.08822260  0.35699451    -0.07100
C1265       C  0.10975204  0.07535631  0.39378619    -0.18300
C1266       C  0.09134684  0.10041983  0.41950273     0.10000
S1267       S  0.14034646  0.15127019  0.30503511    -0.33300
S1268       S  0.08137468  0.08206196  0.46764002    -0.33300
H1269       H  0.09312914  0.11672298  0.48638988     0.28100
H1270       H  0.16251533  0.12021233  0.29198070     0.28000
H1271       H  0.09322386  0.18213612  0.36223171     0.18600
H1272       H  0.11565593  0.04572026  0.40291566     0.18600
C1273       C  0.99568511  0.72122192  0.23235862    -0.07200
C1274       C  0.97032089  0.70256701  0.25891708    -0.18300
C1275       C  0.97013598  0.71176311  0.29820510     0.10000
C1276       C  0.99492074  0.74145210  0.31251006    -0.07100
C1277       C  0.02149658  0.75933057  0.28701362    -0.18300
C1278       C  0.02258606  0.74932856  0.24745158     0.10000
S1279       S  0.93925628  0.68209030  0.32889127    -0.33300
S1280       S  0.05882019  0.77288447  0.21710632    -0.33300
H1281       H  0.08199677  0.78797648  0.24732369     0.28100
H1282       H  0.96739311  0.67721888  0.35796645     0.28000
H1283       H  0.95074820  0.67950405  0.25043720     0.18600
H1284       H  0.04130929  0.78144695  0.29813438     0.18600
C1285       C  0.99886149  0.74151119  0.67398010    -0.07200
C1286       C  0.97187181  0.75659555  0.69984132    -0.18300
C1287       C  0.97106406  0.74484257  0.73897776     0.10000
C1288       C  0.99953344  0.71874739  0.75351133    -0.07100
C1289       C  0.02531289  0.70263848  0.72686853    -0.18300
C1290       C  0.02442789  0.71275225  0.68764441     0.10000
S1291       S  0.93330763  0.76371164  0.76971761    -0.33300
S1292       S  0.05404439  0.68459794  0.65608731    -0.33300
H1293       H  0.02444671  0.67856228  0.62858455     0.28100
H1294       H  0.91505063  0.78698884  0.74163022     0.28000
H1295       H  0.95120468  0.77750022  0.68918859     0.18600
H1296       H  0.04566273  0.68083882  0.73562754     0.18600
C1297       C  0.09902090  0.63871218  0.41168808    -0.07200
C1298       C  0.09347785  0.62861864  0.37279126    -0.18300
C1299       C  0.11691173  0.60119468  0.35461365     0.10000
C1300       C  0.14843359  0.58437409  0.37517290    -0.07100
C1301       C  0.15412463  0.59513390  0.41413578    -0.18300
C1302       C  0.12999354  0.62204315  0.43242718     0.10000
S1303       S  0.10196313  0.58665721  0.30657653    -0.33300
S1304       S  0.14035932  0.63422414  0.48220488    -0.33300
H1305       H  0.12965028  0.67354500  0.47928497     0.28100
H1306       H  0.10488900  0.54650364  0.31433182     0.28000
H1307       H  0.06963827  0.64118801  0.35678888     0.18600
H1308       H  0.17758782  0.58246453  0.43055560     0.18600
C1309       C  0.09974780  0.64036620  0.57838385    -0.07200
C1310       C  0.09326955  0.60083026  0.56943840    -0.18300
C1311       C  0.11431518  0.57108419  0.58712645     0.10000
C1312       C  0.14098549  0.58029575  0.61700725    -0.07100
C1313       C  0.14852023  0.61973221  0.62538322    -0.18300
C1314       C  0.12984434  0.64988581  0.60527721     0.10000
S1315       S  0.10664080  0.52204996  0.56996293    -0.33300
S1316       S  0.14649147  0.69958822  0.61375090    -0.33300
H1317       H  0.17672739  0.69112362  0.63969832     0.28100
H1318       H  0.07217227  0.52835965  0.54923788     0.28000
H1319       H  0.07204485  0.59298680  0.54758712     0.18600
H1320       H  0.17023374  0.62687301  0.64702572     0.18600
C1321       C  0.90684888  0.63453156  0.59067089    -0.07200
C1322       C  0.87588676  0.64700029  0.61389811    -0.18300
C1323       C  0.85043216  0.62053835  0.63202083     0.10000
C1324       C  0.85538110  0.58006672  0.62654930    -0.07100
C1325       C  0.88759465  0.56741106  0.60575074    -0.18300
C1326       C  0.91402559  0.59392329  0.58903236     0.10000
S1327       S  0.81194259  0.64124824  0.66025914    -0.33300
S1328       S  0.95665401  0.57355881  0.56762351    -0.33300
H1329       H  0.98211026  0.60082028  0.58512952     0.28100
H1330       H  0.78448501  0.61132635  0.65472729     0.28000
H1331       H  0.87036284  0.67783307  0.61712760     0.18600
H1332       H  0.89250630  0.53638143  0.60293282     0.18600
C1333       C  0.89174200  0.63074950  0.41455967    -0.07200
C1334       C  0.86579115  0.64236587  0.38509596    -0.18300
C1335       C  0.84024641  0.61588281  0.36681245     0.10000
C1336       C  0.84067345  0.57575368  0.37682996    -0.07100
C1337       C  0.86447822  0.56445127  0.40791195    -0.18300
C1338       C  0.88952573  0.59110903  0.42687123     0.10000
S1339       S  0.80644520  0.63583261  0.33230778    -0.33300
S1340       S  0.91646605  0.57245400  0.46744466    -0.33300
H1341       H  0.90552781  0.60283639  0.49223792     0.28100
H1342       H  0.77683031  0.60802781  0.33957739     0.28000
H1343       H  0.86500677  0.67265935  0.37604335     0.18600
H1344       H  0.86377750  0.53446153  0.41770619     0.18600
C1345       C  0.10878089  0.95778578  0.34008433    -0.07200
C1346       C  0.12270009  0.91938289  0.33857497    -0.18300
C1347       C  0.10670769  0.88863930  0.36077419     0.10000
C1348       C  0.07524218  0.89539940  0.38624536    -0.07100
C1349       C  0.05916743  0.93282096  0.38546166    -0.18300
C1350       C  0.07460648  0.96359696  0.36245241     0.10000
S1351       S  0.12966944  0.84213384  0.35600290    -0.33300
S1352       S  0.04946076  0.00925760  0.36382351    -0.33300
H1353       H  0.01463726  0.99515126  0.38023742     0.28100
H1354       H  0.09628493  0.82416108  0.34018344     0.28000
H1355       H  0.14699429  0.91297452  0.32001285     0.18600
H1356       H  0.03421531  0.93821647  0.40344739     0.18600
C1357       C  0.91133608  0.88801063  0.39366889    -0.07200
C1358       C  0.88007730  0.90684101  0.41040857    -0.18300
C1359       C  0.86057208  0.93571710  0.39041257     0.10000
C1360       C  0.87262133  0.94584372  0.35250327    -0.07100
C1361       C  0.90449559  0.92747231  0.33590977    -0.18300
C1362       C  0.92424475  0.89858435  0.35620501     0.10000
S1363       S  0.82237184  0.95986073  0.41610129    -0.33300
S1364       S  0.96575799  0.87744594  0.33290924    -0.33300
H1365       H  0.98156629  0.85808447  0.36505959     0.28100
H1366       H  0.82846911  0.99688564  0.39927395     0.28000
H1367       H  0.87125556  0.89950112  0.43970157     0.18600
H1368       H  0.91403746  0.93575375  0.30702231     0.18600
C1369       C  0.90774416  0.89249822  0.58796283    -0.07200
C1370       C  0.91812520  0.89638601  0.62709105    -0.18300
C1371       C  0.89853314  0.92179664  0.65183566     0.10000
C1372       C  0.86739602  0.94395364  0.63723496    -0.07100
C1373       C  0.85719669  0.94010692  0.59786226    -0.18300
C1374       C  0.87674102  0.91448693  0.57329235     0.10000
S1375       S  0.91238693  0.92348825  0.70236705    -0.33300
S1376       S  0.85984771  0.90995690  0.52399176    -0.33300
H1377       H  0.86643094  0.86969797  0.52086090     0.28100
H1378       H  0.94456103  0.89905045  0.69991671     0.28000
H1379       H  0.94148155  0.87891611  0.63834455     0.18600
H1380       H  0.83357744  0.95697783  0.58620313     0.18600
C1381       C  0.07481422  0.89517357  0.59507757    -0.07200
C1382       C  0.07554149  0.88548579  0.63481523    -0.18300
C1383       C  0.08994977  0.91161182  0.66260637     0.10000
C1384       C  0.10337467  0.94888802  0.65063505    -0.07100
C1385       C  0.10249415  0.95879359  0.61103752    -0.18300
C1386       C  0.08899711  0.93222472  0.58313839     0.10000
S1387       S  0.09075919  0.89479158  0.71242916    -0.33300
S1388       S  0.09375373  0.94605340  0.53280606    -0.33300
H1389       H  0.10499977  0.90889917  0.52030669     0.28100
H1390       H  0.10363026  0.92923520  0.73042158     0.28000
H1391       H  0.06477559  0.85712716  0.64440701     0.18600
H1392       H  0.11450484  0.98665478  0.60152376     0.18600
C1393       C  0.25351614  0.80611489  0.49629989    -0.07200
C1394       C  0.22816303  0.83196523  0.47759729    -0.18300
C1395       C  0.18839622  0.82416991  0.47632161     0.10000
C1396       C  0.17384276  0.78951270  0.49316274    -0.07100
C1397       C  0.19802380  0.76543649  0.51453129    -0.18300
C1398       C  0.23746617  0.77381300  0.51739818     0.10000
S1399       S  0.15614016  0.86000846  0.45615222    -0.33300
S1400       S  0.26640913  0.74266079  0.54826866    -0.33300
H1401       H  0.23631588  0.71800147  0.56183157     0.28100
H1402       H  0.18473803  0.88340996  0.43799328     0.28000
H1403       H  0.23860932  0.85882958  0.46482052     0.18600
H1404       H  0.18572438  0.73999341  0.52906004     0.18600
C1405       C  0.37528859  0.73777220  0.47708485    -0.07200
C1406       C  0.36758382  0.71169740  0.50751279    -0.18300
C1407       C  0.37742604  0.67269815  0.50531774     0.10000
C1408       C  0.39821773  0.65902098  0.47287964    -0.07100
C1409       C  0.40609673  0.68500927  0.44205458    -0.18300
C1410       C  0.39413982  0.72412161  0.44344410     0.10000
S1411       S  0.36143657  0.64190553  0.54498205    -0.33300
S1412       S  0.40292498  0.75414963  0.40108904    -0.33300
H1413       H  0.39450863  0.79025055  0.41754954     0.28100
H1414       H  0.35991258  0.60730450  0.52349220     0.28000
H1415       H  0.35165936  0.72146204  0.53263344     0.18600
H1416       H  0.42244152  0.67512695  0.41729175     0.18600
C1417       C  0.25376337  0.22049126  0.49808924    -0.07200
C1418       C  0.24169182  0.25767388  0.48502213    -0.18300
C1419       C  0.20308698  0.26926566  0.48719062     0.10000
C1420       C  0.17476846  0.24319511  0.50175069    -0.07100
C1421       C  0.18572070  0.20567152  0.51330374    -0.18300
C1422       C  0.22440359  0.19362227  0.51071535     0.10000
S1423       S  0.19173557  0.31796577  0.47103491    -0.33300
S1424       S  0.23500517  0.14323779  0.52196146    -0.33300
H1425       H  0.19696718  0.13069642  0.53056330     0.28100
H1426       H  0.16193536  0.32388801  0.49800653     0.28000
H1427       H  0.26167232  0.27823903  0.47188557     0.18600
H1428       H  0.16346825  0.18533741  0.52326769     0.18600
C1429       C  0.39526810  0.26101634  0.48440898    -0.07200
C1430       C  0.40846604  0.27335036  0.44776339    -0.18300
C1431       C  0.42956814  0.30853352  0.44349137     0.10000
C1432       C  0.43855703  0.33080808  0.47682994    -0.07100
C1433       C  0.42921179  0.31553829  0.51363568    -0.18300
C1434       C  0.40659591  0.28173386  0.51771486     0.10000
S1435       S  0.44071442  0.32492951  0.39495569    -0.33300
S1436       S  0.38806290  0.26846376  0.56508950    -0.33300
H1437       H  0.41605728  0.28957161  0.58640451     0.28100
H1438       H  0.42985692  0.36379111  0.40095380     0.28000
H1439       H  0.39938505  0.25738079  0.42215440     0.18600
H1440       H  0.43665656  0.33217891  0.53926895     0.18600
C1441       C  0.70757909  0.33488225  0.99290283    -0.07200
C1442       C  0.72212221  0.31004584  0.02157603    -0.18300
C1443       C  0.71095197  0.27065478  0.02336772     0.10000
C1444       C  0.68537919  0.25494439  0.99463361    -0.07100
C1445       C  0.66834849  0.28090643  0.96814641    -0.18300
C1446       C  0.67861971  0.32050567  0.96751387     0.10000
S1447       S  0.73187772  0.24072129  0.06131909    -0.33300
S1448       S  0.65222906  0.35136772  0.93483220    -0.33300
H1449       H  0.64903269  0.38199650  0.96162374     0.28100
H1450       H  0.74959502  0.27103973  0.08266473     0.28000
H1451       H  0.74324358  0.32138130  0.04206515     0.18600
H1452       H  0.64705680  0.27103638  0.94737632     0.18600
C1453       C  0.75989064  0.13620037  0.97980920    -0.07200
C1454       C  0.78358528  0.14302671  0.01216592    -0.18300
C1455       C  0.82296963  0.13519575  0.01148985     0.10000
C1456       C  0.83921731  0.11665301  0.97879039    -0.07100
C1457       C  0.81586265  0.11047496  0.94595448    -0.18300
C1458       C  0.77682715  0.12142496  0.94561710     0.10000
S1459       S  0.85093293  0.15080336  0.05315025    -0.33300
S1460       S  0.75111295  0.11674108  0.90040856    -0.33300
H1461       H  0.72644533  0.14833612  0.90608941     0.28100
H1462       H  0.88608856  0.15541364  0.03310426     0.28000
H1463       H  0.77161053  0.15682702  0.03761172     0.18600
H1464       H  0.82785679  0.09649561  0.92066234     0.18600
C1465       C  0.26070344  0.32717441  0.99758255    -0.07200
C1466       C  0.24978592  0.30300165  0.02892078    -0.18300
C1467       C  0.25941087  0.26317741  0.03060311     0.10000
C1468       C  0.28228599  0.24649932  0.00077418    -0.07100
C1469       C  0.29267854  0.27094783  0.96924916    -0.18300
C1470       C  0.28271741  0.31054367  0.96743729     0.10000
S1471       S  0.24069295  0.23406619  0.07062695    -0.33300
S1472       S  0.29990706  0.33925496  0.92654369    -0.33300
H1473       H  0.32687952  0.31253806  0.91246621     0.28100
H1474       H  0.22562998  0.26481811  0.09248801     0.28000
H1475       H  0.23314859  0.31536872  0.05216726     0.18600
H1476       H  0.30772131  0.25939160  0.94476587     0.18600
C1477       C  0.22940191  0.10991456  0.98551967    -0.07200
C1478       C  0.20437995  0.11986579  0.95479311    -0.18300
C1479       C  0.16906102  0.10010096  0.94901752     0.10000
C1480       C  0.15825646  0.06954279  0.97442848    -0.07100
C1481       C  0.18447763  0.05721884  0.00284542    -0.18300
C1482       C  0.22036920  0.07634515  0.00807790     0.10000
S1483       S  0.13752194  0.11768045  0.91117229    -0.33300
S1484       S  0.25200410  0.05909065  0.04583631    -0.33300
H1485       H  0.23343215  0.02259632  0.05145332     0.28100
H1486       H  0.11522882  0.08322892  0.90707055     0.28000
H1487       H  0.21156414  0.14453099  0.93617468     0.18600
H1488       H  0.17566517  0.03418915  0.02276303     0.18600
C1489       C  0.73480470  0.80643856  0.49924375    -0.07200
C1490       C  0.75726626  0.81176874  0.46537941    -0.18300
C1491       C  0.79626706  0.80157128  0.46345834     0.10000
C1492       C  0.81440777  0.78314111  0.49542259    -0.07100
C1493       C  0.79229786  0.77725380  0.52926635    -0.18300
C1494       C  0.75333381  0.78881843  0.53176016     0.10000
S1495       S  0.82146242  0.81597366  0.41982228    -0.33300
S1496       S  0.72774254  0.77999087  0.57682507    -0.33300
H1497       H  0.75941118  0.76693558  0.59875101     0.28100
H1498       H  0.85207427  0.83334525  0.44070191     0.28000
H1499       H  0.74541045  0.82434604  0.43946746     0.18600
H1500       H  0.80567520  0.76343399  0.55407777     0.18600
C1501       C  0.60006103  0.75028321  0.50662036    -0.07200
C1502       C  0.61121619  0.71995942  0.48270967    -0.18300
C1503       C  0.59517452  0.68279566  0.48560828     0.10000
C1504       C  0.56241711  0.67558547  0.51037225    -0.07100
C1505       C  0.54840215  0.70729851  0.53193805    -0.18300
C1506       C  0.56718429  0.74453503  0.53061837     0.10000
S1507       S  0.61997183  0.64632610  0.45714145    -0.33300
S1508       S  0.54959344  0.78354228  0.56027615    -0.33300
H1509       H  0.51334489  0.76606157  0.56853240     0.28100
H1510       H  0.65685651  0.66449680  0.45727359     0.28000
H1511       H  0.63456729  0.72504506  0.46224898     0.18600
H1512       H  0.52348091  0.70271726  0.55049987     0.18600
C1513       C  0.72932463  0.69650432  0.99554070    -0.07200
C1514       C  0.74081371  0.72310504  0.96643271    -0.18300
C1515       C  0.73037685  0.76281265  0.96776030     0.10000
C1516       C  0.70722345  0.77668155  0.99884356    -0.07100
C1517       C  0.69647103  0.74957200  0.02786170    -0.18300
C1518       C  0.70671751  0.71054173  0.02646416     0.10000
S1519       S  0.74658813  0.79502321  0.92908180    -0.33300
S1520       S  0.68587127  0.67968372  0.06354426    -0.33300
H1521       H  0.66937376  0.65454459  0.03570251     0.28100
H1522       H  0.77013549  0.76821715  0.90988928     0.28000
H1523       H  0.75785940  0.71266220  0.94246780     0.18600
H1524       H  0.67834254  0.75721964  0.05171957     0.18600
C1525       C  0.81133489  0.96547287  0.01642836    -0.07200
C1526       C  0.79619823  0.94585778  0.04887446    -0.18300
C1527       C  0.76246177  0.92265621  0.04562462     0.10000
C1528       C  0.74370640  0.91925045  0.00929052    -0.07100
C1529       C  0.75634148  0.94238004  0.97807738    -0.18300
C1530       C  0.79006897  0.96558132  0.98133407     0.10000
S1531       S  0.74533713  0.89495487  0.08709010    -0.33300
S1532       S  0.80760593  0.99306477  0.93981793    -0.33300
H1533       H  0.77489712  0.98659973  0.91615752     0.28100
H1534       H  0.77030483  0.91244041  0.11450063     0.28000
H1535       H  0.81267821  0.94581235  0.07564357     0.18600
H1536       H  0.74149630  0.93996215  0.95045665     0.18600
C1537       C  0.28545392  0.77486253  0.00415575    -0.07200
C1538       C  0.29524306  0.75155375  0.97224132    -0.18300
C1539       C  0.28741582  0.71139495  0.97151920     0.10000
C1540       C  0.26854735  0.69323571  0.00346966    -0.07100
C1541       C  0.26155942  0.71557128  0.03668447    -0.18300
C1542       C  0.27063356  0.75566395  0.03783346     0.10000
S1543       S  0.30465428  0.68390440  0.93038913    -0.33300
S1544       S  0.26291528  0.78153914  0.08277582    -0.33300
H1545       H  0.25741691  0.74846094  0.10663377     0.28100
H1546       H  0.31469320  0.71567145  0.90618878     0.28000
H1547       H  0.31024980  0.76381142  0.94776043     0.18600
H1548       H  0.24857849  0.70162064  0.06185593     0.18600
C1549       C  0.14204900  0.92767878  0.02812251    -0.07200
C1550       C  0.17005220  0.94814680  0.00592432    -0.18300
C1551       C  0.20849635  0.93622660  0.00366220     0.10000
C1552       C  0.21967225  0.90243100  0.02423106    -0.07100
C1553       C  0.19294526  0.88552767  0.05083978    -0.18300
C1554       C  0.15429887  0.89732307  0.05253804     0.10000
S1555       S  0.24120009  0.96379798  0.97273034    -0.33300
S1556       S  0.12171870  0.87062746  0.08394762    -0.33300
H1557       H  0.09193391  0.86785470  0.05623813     0.28100
H1558       H  0.21447677  0.99032027  0.95748497     0.28000
H1559       H  0.16119992  0.97296404  0.98875615     0.18600
H1560       H  0.20146917  0.86089972  0.06855581     0.18600
C1561       C  0.23881589  0.02153490  0.29914623    -0.07200
C1562       C  0.25223093  0.98613587  0.28353034    -0.18300
C1563       C  0.28940196  0.98270301  0.26781874     0.10000
C1564       C  0.31586553  0.01451600  0.26991844    -0.07100
C1565       C  0.30279971  0.04982775  0.28520353    -0.18300
C1566       C  0.26453743  0.05458681  0.29734728     0.10000
S1567       S  0.29934078  0.93838909  0.24194807    -0.33300
S1568       S  0.24968260  0.10417480  0.30636465    -0.33300
H1569       H  0.28424079  0.12385027  0.29594489     0.28100
H1570       H  0.31964215  0.95727405  0.21163985     0.28000
H1571       H  0.23246241  0.96150544  0.28025613     0.18600
H1572       H  0.32256059  0.07462634  0.28668323     0.18600
C1573       C  0.67687765  0.01210957  0.26943233    -0.07200
C1574       C  0.70090436  0.04459292  0.26128785    -0.18300
C1575       C  0.74059460  0.04474533  0.27023675     0.10000
C1576       C  0.75698752  0.01188417  0.28905861    -0.07100
C1577       C  0.73278179  0.97910290  0.29599755    -0.18300
C1578       C  0.69337823  0.97884442  0.28715008     0.10000
S1579       S  0.76991888  0.08674305  0.25589645    -0.33300
S1580       S  0.66551604  0.93511808  0.29943909    -0.33300
H1581       H  0.69191195  0.91905494  0.32598890     0.28100
H1582       H  0.73973516  0.10999136  0.24190282     0.28000
H1583       H  0.68858452  0.06980638  0.24718484     0.18600
H1584       H  0.74412034  0.95240839  0.30719607     0.18600
C1585       C  0.37503214  0.86955871  0.43615449    -0.07200
C1586       C  0.35729347  0.87435504  0.39968965    -0.18300
C1587       C  0.37285347  0.89918736  0.37160679     0.10000
C1588       C  0.40906195  0.91756028  0.37816215    -0.07100
C1589       C  0.42764932  0.91217265  0.41399364    -0.18300
C1590       C  0.41101162  0.88883076  0.44327280     0.10000
S1591       S  0.34344681  0.90814858  0.32940440    -0.33300
S1592       S  0.43599663  0.88577764  0.48921755    -0.33300
H1593       H  0.46918741  0.90790270  0.47911875     0.28100
H1594       H  0.35138394  0.94859468  0.32893318     0.28000
H1595       H  0.33034217  0.85922304  0.39295103     0.18600
H1596       H  0.45547532  0.92631884  0.41898865     0.18600
C1597       C  0.61480549  0.86590184  0.43408238    -0.07200
C1598       C  0.63168314  0.90212126  0.42363454    -0.18300
C1599       C  0.61322245  0.92778290  0.39819944     0.10000
C1600       C  0.57773756  0.91647799  0.38094059    -0.07100
C1601       C  0.56085491  0.88018562  0.39085270    -0.18300
C1602       C  0.57893519  0.85484392  0.41716663     0.10000
S1603       S  0.63663833  0.97444933  0.38911335    -0.33300
S1604       S  0.55599317  0.80800754  0.42602162    -0.33300
H1605       H  0.59085864  0.78759206  0.42847800     0.28100
H1606       H  0.60284481  0.99529801  0.38153293     0.28000
H1607       H  0.65902064  0.91120876  0.43648167     0.18600
H1608       H  0.53377460  0.87119020  0.37736861     0.18600
C1609       C  0.40487613  0.10763247  0.37489377    -0.07200
C1610       C  0.39428065  0.08870545  0.40965810    -0.18300
C1611       C  0.37189230  0.10734319  0.43749115     0.10000
C1612       C  0.35924430  0.14560317  0.43039866    -0.07100
C1613       C  0.36965821  0.16463456  0.39583409    -0.18300
C1614       C  0.39285755  0.14648709  0.36836256     0.10000
S1615       S  0.36137283  0.08123187  0.48193127    -0.33300
S1616       S  0.40844369  0.17579629  0.32739270    -0.33300
H1617       H  0.44609326  0.16093571  0.32628512     0.28100
H1618       H  0.32672636  0.10036713  0.49023910     0.28000
H1619       H  0.40325290  0.05902644  0.41514553     0.18600
H1620       H  0.36156891  0.19475471  0.39130181     0.18600
C1621       C  0.49634947  0.19644807  0.23230219    -0.07200
C1622       C  0.52279485  0.22288309  0.24920327    -0.18300
C1623       C  0.52334973  0.26275643  0.23875287     0.10000
C1624       C  0.49640952  0.27681959  0.21078500    -0.07100
C1625       C  0.47154598  0.24929534  0.19292309    -0.18300
C1626       C  0.47054289  0.21008116  0.20373478     0.10000
S1627       S  0.55980581  0.29452723  0.26029632    -0.33300
S1628       S  0.43819878  0.17744990  0.17755347    -0.33300
H1629       H  0.41441599  0.20603744  0.16102576     0.28100
H1630       H  0.57509632  0.26717949  0.28650186     0.28000
H1631       H  0.54323508  0.21208619  0.27037902     0.18600
H1632       H  0.45389556  0.25720565  0.16858441     0.18600
C1633       C  0.49615696  0.83204138  0.22696740    -0.07200
C1634       C  0.53125440  0.81789649  0.21267342    -0.18300
C1635       C  0.53498293  0.77935421  0.20043905     0.10000
C1636       C  0.50147934  0.75464031  0.19693248    -0.07100
C1637       C  0.46639775  0.76892695  0.21179686    -0.18300
C1638       C  0.46376379  0.80625255  0.22795717     0.10000
S1639       S  0.58429429  0.76391751  0.19451968    -0.33300
S1640       S  0.41954118  0.81715853  0.25302028    -0.33300
H1641       H  0.43828243  0.83568011  0.28441496     0.28100
H1642       H  0.57962369  0.73015954  0.21752553     0.28000
H1643       H  0.55694242  0.83653005  0.21265971     0.18600
H1644       H  0.44123686  0.74974639  0.21384135     0.18600
C1645       C  0.60112209  0.09474702  0.12002412    -0.07200
C1646       C  0.59776656  0.07983956  0.08212080    -0.18300
C1647       C  0.61926617  0.09531351  0.05086414     0.10000
C1648       C  0.64603587  0.12648211  0.05724441    -0.07100
C1649       C  0.65144620  0.13949941  0.09559940    -0.18300
C1650       C  0.62930290  0.12468307  0.12677605     0.10000
S1651       S  0.60990046  0.07563755  0.00326050    -0.33300
S1652       S  0.63698201  0.14595963  0.17421293    -0.33300
H1653       H  0.66309707  0.17589909  0.16304568     0.28100
H1654       H  0.57746241  0.05209790  0.01268556     0.28000
H1655       H  0.57748912  0.05607428  0.07663248     0.18600
H1656       H  0.67256110  0.16257725  0.10094727     0.18600
C1657       C  0.59241937  0.92608919  0.12538098    -0.07200
C1658       C  0.58152174  0.88815640  0.11450711    -0.18300
C1659       C  0.60218796  0.86810430  0.08611416     0.10000
C1660       C  0.63461448  0.88674947  0.06824125    -0.07100
C1661       C  0.64577557  0.92446964  0.08014063    -0.18300
C1662       C  0.62548003  0.94405280  0.10883110     0.10000
S1663       S  0.58492361  0.82016008  0.07156591    -0.33300
S1664       S  0.64334425  0.99183549  0.12282358    -0.33300
H1665       H  0.62785814  0.99207954  0.16046744     0.28100
H1666       H  0.55259891  0.81780531  0.09627885     0.28000
H1667       H  0.55630508  0.87460397  0.12793765     0.18600
H1668       H  0.67089120  0.93879587  0.06731208     0.18600
C1669       C  0.39800872  0.92867747  0.11990084    -0.07200
C1670       C  0.39547101  0.94602762  0.08297771    -0.18300
C1671       C  0.37188046  0.92996527  0.05363466     0.10000
C1672       C  0.34912431  0.89587046  0.06157356    -0.07100
C1673       C  0.35124079  0.87922824  0.09881191    -0.18300
C1674       C  0.37592331  0.89425347  0.12730009     0.10000
S1675       S  0.37268659  0.95365258  0.00677441    -0.33300
S1676       S  0.37927122  0.86622044  0.17144571    -0.33300
H1677       H  0.42000284  0.86821092  0.17238148     0.28100
H1678       H  0.40686729  0.97591831  0.01229313     0.28000
H1679       H  0.41183387  0.97265687  0.07712183     0.18600
H1680       H  0.33391106  0.85348023  0.10581763     0.18600
C1681       C  0.39573159  0.09693200  0.12173573    -0.07200
C1682       C  0.35588253  0.09796302  0.13027799    -0.18300
C1683       C  0.32935556  0.11536205  0.10495259     0.10000
C1684       C  0.34271592  0.13119232  0.06940337    -0.07100
C1685       C  0.38262524  0.13200461  0.06182397    -0.18300
C1686       C  0.40917998  0.11504295  0.08731375     0.10000
S1687       S  0.27973740  0.11773973  0.12119404    -0.33300
S1688       S  0.45975803  0.11903580  0.07485441    -0.33300
H1689       H  0.47300235  0.12481689  0.11303956     0.28100
H1690       H  0.26423338  0.13859919  0.08986424     0.28000
H1691       H  0.34526176  0.08523758  0.15717449     0.18600
H1692       H  0.39323182  0.14598904  0.03552900     0.18600
C1693       C  0.81698591  0.23489696  0.50324208    -0.07200
C1694       C  0.80611085  0.20629373  0.53055882    -0.18300
C1695       C  0.76916612  0.18919299  0.53048736     0.10000
C1696       C  0.74082888  0.20351943  0.50435778    -0.07100
C1697       C  0.75336842  0.22921044  0.47455406    -0.18300
C1698       C  0.79053230  0.24545321  0.47402051     0.10000
S1699       S  0.76407803  0.14575838  0.55974732    -0.33300
S1700       S  0.80114819  0.28113402  0.43666299    -0.33300
H1701       H  0.82250486  0.30621019  0.46120767     0.28100
H1702       H  0.74103285  0.12601208  0.53211837     0.28000
H1703       H  0.82745020  0.19538563  0.55085104     0.18600
H1704       H  0.73291726  0.23903490  0.45283796     0.18600
C1705       C  0.58112664  0.11222177  0.37953260    -0.07200
C1706       C  0.61123355  0.09476456  0.40006425    -0.18300
C1707       C  0.63002897  0.11407294  0.43051352     0.10000
C1708       C  0.61943635  0.15261458  0.44016952    -0.07100
C1709       C  0.58879325  0.16989898  0.41997566    -0.18300
C1710       C  0.56935384  0.15010116  0.38989758     0.10000
S1711       S  0.66590613  0.08689185  0.45687497    -0.33300
S1712       S  0.53003556  0.17497423  0.36622764    -0.33300
H1713       H  0.51227669  0.14246888  0.34855048     0.28100
H1714       H  0.65642709  0.10208826  0.49337537     0.28000
H1715       H  0.61981728  0.06547955  0.39265953     0.18600
H1716       H  0.58024193  0.19920899  0.42738662     0.18600
C1717       C  0.61681336  0.27369782  0.50960622    -0.07200
C1718       C  0.62860320  0.30300398  0.48353471    -0.18300
C1719       C  0.61488077  0.34088295  0.48620737     0.10000
C1720       C  0.58798027  0.35027552  0.51535813    -0.07100
C1721       C  0.57580512  0.32105494  0.54166340    -0.18300
C1722       C  0.59022126  0.28278942  0.53922255     0.10000
S1723       S  0.63235618  0.37733010  0.45211930    -0.33300
S1724       S  0.57525214  0.24635338  0.57433466    -0.33300
H1725       H  0.55466326  0.27151290  0.59854763     0.28100
H1726       H  0.65576880  0.35292324  0.42984868     0.28000
H1727       H  0.64946780  0.29616475  0.46128191     0.18600
H1728       H  0.55425539  0.32792423  0.56321768     0.18600
C1729       C  0.30251567  0.00649073  0.73805031    -0.07200
C1730       C  0.28071832  0.97134259  0.73813940    -0.18300
C1731       C  0.24081062  0.97055776  0.73061014     0.10000
C1732       C  0.22227954  0.00535780  0.71869532    -0.07100
C1733       C  0.24318404  0.04069730  0.72279752    -0.18300
C1734       C  0.28244452  0.04197179  0.73261817     0.10000
S1735       S  0.21574846  0.92494146  0.74063695    -0.33300
S1736       S  0.30507815  0.08980817  0.73770344    -0.33300
H1737       H  0.27095426  0.11085818  0.74328758     0.28100
H1738       H  0.18284943  0.94221964  0.75661817     0.28000
H1739       H  0.29460345  0.94409950  0.74521693     0.18600
H1740       H  0.22857912  0.06800258  0.71832059     0.18600
C1741       C  0.66587730  0.00255792  0.72234397    -0.07200
C1742       C  0.69013874  0.03393817  0.73315034    -0.18300
C1743       C  0.72928135  0.03620160  0.72186171     0.10000
C1744       C  0.74526879  0.00646892  0.69813211    -0.07100
C1745       C  0.72050320  0.97539544  0.68707348    -0.18300
C1746       C  0.68162799  0.97329589  0.69848954     0.10000
S1747       S  0.75858411  0.07654385  0.74006610    -0.33300
S1748       S  0.65339641  0.93322283  0.67955788    -0.33300
H1749       H  0.62533624  0.95852923  0.66474844     0.28100
H1750       H  0.72953536  0.09533880  0.76107731     0.28000
H1751       H  0.67845414  0.05653991  0.75129278     0.18600
H1752       H  0.73103505  0.95159840  0.67002469     0.18600
C1753       C  0.40139621  0.10173995  0.61857125    -0.07200
C1754       C  0.42526195  0.12765212  0.59767162    -0.18300
C1755       C  0.41005514  0.15385379  0.57031839     0.10000
C1756       C  0.36950591  0.15320832  0.56243785    -0.07100
C1757       C  0.34589740  0.12675810  0.58370369    -0.18300
C1758       C  0.36119762  0.10141929  0.61158655     0.10000
S1759       S  0.44323859  0.18915248  0.54879002    -0.33300
S1760       S  0.32771465  0.06886361  0.63638207    -0.33300
H1761       H  0.35437714  0.04036178  0.64728988     0.28100
H1762       H  0.47752935  0.17630325  0.56641976     0.28000
H1763       H  0.45602010  0.12805539  0.60387859     0.18600
H1764       H  0.31511602  0.12477950  0.57791873     0.18600
C1765       C  0.57403758  0.10088778  0.61997506    -0.07200
C1766       C  0.60067861  0.12926902  0.63393073    -0.18300
C1767       C  0.62104031  0.15433826  0.60907107     0.10000
C1768       C  0.61541274  0.15105194  0.56868753    -0.07100
C1769       C  0.58856536  0.12355266  0.55439797    -0.18300
C1770       C  0.56824850  0.09818983  0.57926385     0.10000
S1771       S  0.65275208  0.19035582  0.63135539    -0.33300
S1772       S  0.53644846  0.06290749  0.55648647    -0.33300
H1773       H  0.55579702  0.03091828  0.57280123     0.28100
H1774       H  0.65102389  0.21831114  0.60148414     0.28000
H1775       H  0.60573804  0.13256288  0.66477137     0.18600
H1776       H  0.58448792  0.12070468  0.52333474     0.18600
C1777       C  0.57339267  0.90821957  0.62048588    -0.07200
C1778       C  0.58209117  0.92704543  0.58512019    -0.18300
C1779       C  0.60537780  0.90961772  0.55723805     0.10000
C1780       C  0.62002856  0.87213809  0.56418124    -0.07100
C1781       C  0.61191432  0.85323563  0.59933067    -0.18300
C1782       C  0.58871969  0.87056718  0.62756156     0.10000
S1783       S  0.61573690  0.93693793  0.51363323    -0.33300
S1784       S  0.57791804  0.84307568  0.67129726    -0.33300
H1785       H  0.60128537  0.81083131  0.66361892     0.28100
H1786       H  0.65279004  0.92160529  0.50818701     0.28000
H1787       H  0.57151324  0.95610253  0.57943349     0.18600
H1788       H  0.62278944  0.82411784  0.60395790     0.18600
C1789       C  0.39966976  0.90107783  0.62061512    -0.07200
C1790       C  0.39885214  0.86043571  0.62717877    -0.18300
C1791       C  0.38609483  0.83426839  0.59841577     0.10000
C1792       C  0.37329029  0.84883266  0.56239984    -0.07100
C1793       C  0.37190428  0.88941455  0.55674149    -0.18300
C1794       C  0.38501696  0.91555414  0.58514130     0.10000
S1795       S  0.38573515  0.78278637  0.60953450    -0.33300
S1796       S  0.38013980  0.96696397  0.57512872    -0.33300
H1797       H  0.37175417  0.97728043  0.61360546     0.28100
H1798       H  0.39253357  0.77049314  0.57134862     0.28000
H1799       H  0.40901757  0.84892503  0.65460379     0.18600
H1800       H  0.35969587  0.90089612  0.53011540     0.18600
C1801       C  0.49140882  0.18558512  0.77047196    -0.07200
C1802       C  0.47667638  0.19581278  0.80687763    -0.18300
C1803       C  0.47835251  0.23444540  0.82039534     0.10000
C1804       C  0.49341399  0.26474710  0.79606536    -0.07100
C1805       C  0.51279068  0.25303695  0.76193822    -0.09500
C1806       C  0.51086267  0.21449067  0.74839588     0.10000
S1807       S  0.46640368  0.24099145  0.87077452    -0.33300
S1808       S  0.53229578  0.20443733  0.70190460    -0.33300
H1809       H  0.50480400  0.17575297  0.69093093     0.28100
H1810       H  0.49302379  0.27200495  0.87639371     0.28000
H1811       H  0.46557294  0.17302317  0.82593268     0.18600
H1812       H  0.52791239  0.27458981  0.74424197     0.18600
C1813       C  0.48619445  0.74106363  0.78005268    -0.07200
C1814       C  0.48378775  0.75533728  0.74151894    -0.18300
C1815       C  0.48173420  0.79510246  0.73308543     0.10000
C1816       C  0.48112965  0.82191462  0.76367611    -0.07100
C1817       C  0.48208771  0.80856580  0.80205775    -0.18300
C1818       C  0.48447686  0.76865801  0.81075199     0.10000
S1819       S  0.47961659  0.80907166  0.68241995    -0.33300
S1820       S  0.48588920  0.75404929  0.86134851    -0.33300
H1821       H  0.47673832  0.79045641  0.87727777     0.28100
H1822       H  0.48771936  0.84916890  0.68595062     0.28000
H1823       H  0.48348782  0.73636317  0.71687470     0.18600
H1824       H  0.48166145  0.82973597  0.82528699     0.18600
C1825       C  0.39164008  0.09240340  0.87703755    -0.07200
C1826       C  0.39297608  0.07728668  0.91499189    -0.18300
C1827       C  0.37306198  0.09432963  0.94584984     0.10000
C1828       C  0.35002248  0.12769906  0.93905521    -0.07100
C1829       C  0.34820743  0.14237595  0.90088070    -0.18300
C1830       C  0.36868421  0.12575231  0.87025252     0.10000
S1831       S  0.37895884  0.07206098  0.99292352    -0.33300
S1832       S  0.36364548  0.14925743  0.82363840    -0.33300
H1833       H  0.40344591  0.15007661  0.81588169     0.28100
H1834       H  0.41549103  0.05599254  0.98596169     0.28000
H1835       H  0.40950814  0.05132289  0.92072487     0.18600
H1836       H  0.33023989  0.16718485  0.89445915     0.18600
C1837       C  0.38322129  0.92282508  0.87696675    -0.07200
C1838       C  0.34308939  0.92671520  0.87186854    -0.18300
C1839       C  0.31676508  0.91319334  0.89993245     0.10000
C1840       C  0.33098430  0.89659974  0.93461979    -0.07100
C1841       C  0.37101526  0.89148986  0.93895084    -0.18300
C1842       C  0.39722880  0.90441536  0.91074489     0.10000
S1843       S  0.26592931  0.91696562  0.88856872    -0.33300
S1844       S  0.44783180  0.89497741  0.91898099    -0.33300
H1845       H  0.45725758  0.88934940  0.87974826     0.28100
H1846       H  0.25155235  0.89008139  0.91606274     0.28000
H1847       H  0.33213328  0.94037127  0.84570132     0.18600
H1848       H  0.38191386  0.87657957  0.96445990     0.18600
C1849       C  0.58519569  0.92002774  0.87635290    -0.07200
C1850       C  0.57025277  0.91342330  0.91376376    -0.18300
C1851       C  0.59270720  0.89653461  0.94320267     0.10000
C1852       C  0.63110833  0.88568582  0.93535595    -0.07100
C1853       C  0.64612132  0.89186392  0.89810356    -0.18300
C1854       C  0.62404796  0.90932987  0.86879073     0.10000
S1855       S  0.57121547  0.88720823  0.99002084    -0.33300
S1856       S  0.64822609  0.91847449  0.82320748    -0.33300
H1857       H  0.63362904  0.95622218  0.81836244     0.28100
H1858       H  0.53759918  0.90905478  0.98410305     0.28000
H1859       H  0.54055890  0.92088143  0.91979946     0.18600
H1860       H  0.67576886  0.88400760  0.89212721     0.18600
C1861       C  0.58391974  0.08821647  0.87586886    -0.07200
C1862       C  0.56724396  0.11720321  0.89849349    -0.18300
C1863       C  0.58960674  0.13886764  0.92496736     0.10000
C1864       C  0.62967993  0.13139480  0.92855799    -0.07100
C1865       C  0.64556312  0.10078820  0.90740401    -0.18300
C1866       C  0.62328410  0.07932890  0.88093223     0.10000
S1867       S  0.56600565  0.17386518  0.95564042    -0.33300
S1868       S  0.64663401  0.04080839  0.85481112    -0.33300
H1869       H  0.61336944  0.01699407  0.85042422     0.28100
H1870       H  0.52808697  0.16730956  0.94186695     0.28000
H1871       H  0.53675369  0.12316263  0.89489221     0.18600
H1872       H  0.67546781  0.09331518  0.91162745     0.18600
loop_ 
_geom_bond_atom_site_label_1 
_geom_bond_atom_site_label_2 
_geom_bond_distance 
_geom_bond_site_symmetry_2 
_ccdc_geom_bond_type 
O1          Zr37   2.431       .  S
O1           C12   1.290       .  A
O2          Zr36   2.447       .  S
O2           C13   1.292       .  A
O3           Zr9   2.453       .  S
O3           C14   1.295       .  A
O4           Zr9   2.451       .  S
O4           C15   1.294       .  A
O5          Zr39   2.460       .  S
O5           C15   1.296       .  A
O6          Zr38   2.457       .  S
O6           C14   1.295   1_565  A
O7           Zr9   2.413       .  S
O7           C13   1.289       .  A
O8           Zr9   2.433       .  S
O8           C12   1.291       .  A
Zr9          O10   2.344       .  S
Zr9          O11   2.335       .  S
Zr9          O19   2.339       .  S
Zr9          O17   2.340       .  S
O10         Zr36   2.353       .  S
O10         Zr39   2.336       .  S
O11         Zr37   2.346       .  S
O11         Zr38   2.333   1_545  S
C12        C1861   1.464       .  S
C13        C1765   1.492       .  S
C14        C1741   1.499       .  S
C15        C1801   1.484       .  S
H16          O17   0.965       .  S
O17         Zr36   2.332       .  S
O17         Zr38   2.335   1_545  S
H18          O19   0.965       .  S
O19         Zr37   2.330       .  S
O19         Zr39   2.342       .  S
O20         Zr36   2.456   1_565  S
O20          C43   1.296       .  A
O21         Zr37   2.434   1_565  S
O21          C44   1.292       .  A
O22         Zr38   2.424       .  S
O22          C45   1.289       .  A
O23         Zr39   2.445       .  S
O23          C46   1.293       .  A
O24         Zr39   2.438       .  S
O24          C47   1.291       .  A
O25         Zr38   2.430       .  S
O25          C48   1.290       .  A
O26         Zr40   2.437       .  S
O26          C49   1.291       .  A
O27         Zr40   2.447       .  S
O27          C50   1.294   1_565  A
O28         Zr38   2.430       .  S
O28          C49   1.290       .  A
O29         Zr39   2.430       .  S
O29          C50   1.288       .  A
O30         Zr36   2.457   1_565  S
O30          C45   1.297       .  A
O31         Zr37   2.456   1_565  S
O31          C48   1.296       .  A
O32         Zr37   2.453       .  S
O32          C47   1.296       .  A
O33         Zr36   2.446       .  S
O33          C46   1.294       .  A
O34         Zr40   2.441       .  S
O34          C43   1.292       .  A
O35         Zr40   2.433       .  S
O35          C44   1.291       .  A
Zr36         O42   2.341   1_545  S
Zr36         O54   2.338       .  S
Zr37         O41   2.341       .  S
Zr37         O52   2.332   1_545  S
Zr38         O42   2.342       .  S
Zr38         O52   2.349       .  S
Zr39         O41   2.336       .  S
Zr39         O54   2.354       .  S
Zr40         O41   2.336   1_565  S
Zr40         O42   2.339       .  S
Zr40         O54   2.348   1_565  S
Zr40         O52   2.352       .  S
C43        C1789   1.487       .  S
C44        C1837   1.472       .  S
C45        C1777   1.491       .  S
C46        C1753   1.475       .  S
C47        C1825   1.500       .  S
C48        C1849   1.492       .  S
C49        C1816   1.458       .  S
C50        C1729   1.496       .  S
H51          O52   0.965       .  S
H53          O54   0.966       .  S
C55          C56   1.541       .  S
C55          C61   1.532       .  S
C55          C59   1.532       .  S
C55        C1696   1.530       .  S
C56          H63   1.073       .  S
C56          C57   1.367       .  D
C57          C58   1.535       .  S
C57        C1768   1.474       .  S
C58          C62   1.543       .  S
C58          C60   1.544       .  S
C58          H64   1.111       .  S
C59          H65   1.086       .  S
C59          C60   1.364       .  D
C60        C1708   1.487       .  S
C61          H66   1.088       .  S
C61          C62   1.359       .  D
C62        C1717   1.486       .  S
O67        Zr103   2.448       .  S
O67          C78   1.293       .  A
O68        Zr102   2.429       .  S
O68          C79   1.291       .  A
O69         Zr75   2.445       .  S
O69          C80   1.294       .  A
O70         Zr75   2.444   1_565  S
O70          C81   1.292       .  A
O71        Zr105   2.448       .  S
O71          C81   1.293       .  A
O72        Zr104   2.418       .  S
O72          C80   1.288       .  A
O73         Zr75   2.421   1_565  S
O73          C79   1.290       .  A
O74         Zr75   2.436       .  S
O74          C78   1.291       .  A
Zr75         O76   2.348   1_545  S
Zr75         O77   2.339       .  S
Zr75         O85   2.329       .  S
Zr75         O83   2.327       .  S
O76        Zr102   2.340       .  S
O76        Zr105   2.325       .  S
O77        Zr103   2.341       .  S
O77        Zr104   2.333       .  S
C78        C1705   1.471       .  S
C79        C1588   1.473       .  S
C80        C1609   1.479       .  S
C81        C1600   1.476       .  S
H82          O83   0.965       .  S
O83        Zr102   2.340   1_545  S
O83        Zr104   2.330       .  S
H84          O85   0.965       .  S
O85        Zr103   2.353       .  S
O85        Zr105   2.342   1_545  S
O86        Zr102   2.432       .  S
O86         C109   1.291       .  A
O87        Zr103   2.452       .  S
O87         C110   1.293       .  A
O88        Zr104   2.434       .  S
O88         C111   1.293       .  A
O89        Zr105   2.433       .  S
O89         C112   1.292       .  A
O90        Zr105   2.420       .  S
O90         C113   1.287   1_565  A
O91        Zr104   2.429       .  S
O91         C114   1.291       .  A
O92        Zr106   2.465       .  S
O92         C115   1.297       .  A
O93        Zr106   2.449   1_565  S
O93         C116   1.294       .  A
O94        Zr104   2.418       .  S
O94         C115   1.288       .  A
O95        Zr105   2.421       .  S
O95         C116   1.288       .  A
O96        Zr102   2.446       .  S
O96         C111   1.293   1_565  A
O97        Zr103   2.451       .  S
O97         C114   1.295       .  A
O98        Zr103   2.450       .  S
O98         C113   1.295       .  A
O99        Zr102   2.449       .  S
O99         C112   1.293       .  A
O100       Zr106   2.446   1_565  S
O100        C109   1.295       .  A
O101       Zr106   2.444       .  S
O101        C110   1.295       .  A
Zr102       O108   2.336   1_565  S
Zr102       O120   2.338       .  S
Zr103       O107   2.339       .  S
Zr103       O118   2.357       .  S
Zr104       O108   2.326       .  S
Zr104       O118   2.347       .  S
Zr105       O107   2.339   1_565  S
Zr105       O120   2.340       .  S
Zr106       O107   2.345       .  S
Zr106       O108   2.340       .  S
Zr106       O120   2.336   1_545  S
Zr106       O118   2.338       .  S
C109       C1669   1.489       .  S
C110       C1645   1.506       .  S
C111       C1564   1.492       .  S
C112       C1633   1.493       .  S
C113       C1573   1.487       .  S
C114       C1621   1.481       .  S
C115       C1681   1.485       .  S
C116       C1657   1.462       .  S
H117        O118   0.966       .  S
H119        O120   0.965       .  S
C121        C122   1.539   1_554  S
C121        C127   1.526       .  S
C121        C125   1.536       .  S
C121       C1537   1.538       .  S
C122        H129   1.080       .  S
C122        C123   1.360       .  D
C123        C124   1.549   1_556  S
C123       C1840   1.477       .  S
C124        C128   1.555       .  S
C124        C126   1.538       .  S
C124        H130   1.101       .  S
C125        H131   1.086       .  S
C125        C126   1.372       .  D
C126       C1672   1.499       .  S
C127        H132   1.086       .  S
C127        C128   1.366       .  D
C128       C1552   1.502       .  S
C133        C134   1.557       .  S
C133        C139   1.533       .  S
C133        C137   1.543   1_554  S
C133       C1516   1.549   1_554  S
C134        H141   1.077       .  S
C134        C135   1.365       .  D
C135        C136   1.534       .  S
C135       C1660   1.488       .  S
C136        C140   1.538       .  S
C136        C138   1.536   1_554  S
C136        H142   1.111       .  S
C137        H143   1.086       .  S
C137        C138   1.367       .  D
C138       C1852   1.487       .  S
C139        H144   1.087       .  S
C139        C140   1.365       .  D
C140       C1528   1.478       .  S
C145        C146   1.554       .  S
C145        C151   1.527       .  S
C145        C149   1.542       .  S
C145       C1489   1.556       .  S
C146        H153   1.080       .  S
C146        C147   1.367       .  D
C147        C148   1.538       .  S
C147       C1597   1.494       .  S
C148        C152   1.539       .  S
C148        C150   1.537       .  S
C148        H154   1.109       .  S
C149        H155   1.086       .  S
C149        C150   1.371       .  D
C150       C1780   1.474       .  S
C151        H156   1.087       .  S
C151        C152   1.371       .  D
C152       C1501   1.496       .  S
C157        C158   1.537       .  S
C157        C163   1.530   1_554  S
C157        C161   1.558   1_554  S
C157       C1468   1.554       .  S
C158        H165   1.086       .  S
C158        C159   1.366       .  D
C159        C160   1.548       .  S
C159       C1684   1.482       .  S
C160        C164   1.541   1_554  S
C160        C162   1.538   1_554  S
C160        H166   1.101       .  S
C161        H167   1.080       .  S
C161        C162   1.378       .  D
C162       C1828   1.510       .  S
C163        H168   1.087       .  S
C163        C164   1.365       .  D
C164       C1477   1.496       .  S
C169        C170   1.543       .  S
C169        C175   1.519       .  S
C169        C173   1.535   1_556  S
C169       C1444   1.528       .  S
C170        H177   1.081       .  S
C170        C171   1.371       .  D
C171        C172   1.548       .  S
C171       C1864   1.484       .  S
C172        C176   1.550       .  S
C172        C174   1.553   1_556  S
C172        H178   1.108       .  S
C173        H179   1.086       .  S
C173        C174   1.370       .  D
C174       C1648   1.509       .  S
C175        H180   1.088       .  S
C175        C176   1.350       .  D
C176       C1453   1.481       .  S
C181        C182   1.541       .  S
C181        C187   1.543       .  S
C181        C185   1.549       .  S
C181       C1417   1.550       .  S
C182        H189   1.086       .  S
C182        C183   1.364       .  D
C183        C184   1.524       .  S
C183       C1612   1.470       .  S
C184        C188   1.529       .  S
C184        C186   1.541       .  S
C184        H190   1.105       .  S
C185        H191   1.085       .  S
C185        C186   1.378       .  D
C186       C1756   1.508       .  S
C187        H192   1.082       .  S
C187        C188   1.360       .  D
C188       C1429   1.469       .  S
C193        C194   1.527       .  S
C193        C199   1.523       .  S
C193        C197   1.541       .  S
C193       C1393   1.519       .  S
C194        H201   1.087       .  S
C194        C195   1.359       .  D
C195        C196   1.551       .  S
C195       C1792   1.483       .  S
C196        C200   1.546       .  S
C196        C198   1.544       .  S
C196        H202   1.106       .  S
C197        H203   1.080       .  S
C197        C198   1.375       .  D
C198       C1585   1.491       .  S
C199        H204   1.088       .  S
C199        C200   1.353       .  D
C200       C1405   1.478       .  S
O205       Zr241   2.458       .  S
O205        C216   1.296       .  A
O206       Zr240   2.440       .  S
O206        C217   1.292   1_455  A
O207       Zr213   2.426       .  S
O207        C218   1.292       .  A
O208       Zr213   2.439       .  S
O208        C219   1.292       .  A
O209       Zr243   2.463       .  S
O209        C219   1.296       .  A
O210       Zr242   2.455       .  S
O210        C218   1.295       .  A
O211       Zr213   2.452       .  S
O211        C217   1.294       .  A
O212       Zr213   2.454       .  S
O212        C216   1.296       .  A
Zr213       O214   2.335       .  S
Zr213       O215   2.348       .  S
Zr213       O223   2.344       .  S
Zr213       O221   2.344       .  S
O214       Zr240   2.330   1_655  S
O214       Zr243   2.348       .  S
O215       Zr241   2.335       .  S
O215       Zr242   2.352       .  S
C216       C1492   1.505       .  S
C217       C1285   1.485       .  S
C218       C1321   1.496       .  S
C219       C1369   1.481       .  S
H220        O221   0.964       .  S
O221       Zr240   2.329   1_655  S
O221       Zr242   2.336       .  S
H222        O223   0.965       .  S
O223       Zr241   2.349       .  S
O223       Zr243   2.341       .  S
O224       Zr240   2.407       .  S
O224        C247   1.286       .  A
O225       Zr241   2.454       .  S
O225        C248   1.296       .  A
O226       Zr242   2.458   1_455  S
O226        C249   1.298       .  A
O227       Zr243   2.454   1_455  S
O227        C250   1.295       .  A
O228       Zr243   2.413       .  S
O228        C251   1.288       .  A
O229       Zr242   2.480       .  S
O229        C252   1.300       .  A
O230       Zr244   2.441       .  S
O230        C253   1.292       .  A
O231       Zr244   2.445       .  S
O231        C254   1.291       .  A
O232       Zr242   2.467   1_455  S
O232        C253   1.298       .  A
O233       Zr243   2.479   1_455  S
O233        C254   1.301       .  A
O234       Zr240   2.423       .  S
O234        C249   1.287       .  A
O235       Zr241   2.439       .  S
O235        C252   1.293       .  A
O236       Zr241   2.424       .  S
O236        C251   1.289       .  A
O237       Zr240   2.422       .  S
O237        C250   1.289       .  A
O238       Zr244   2.429       .  S
O238        C247   1.290       .  A
O239       Zr244   2.432       .  S
O239        C248   1.291   1_455  A
Zr240       O246   2.336       .  S
Zr240       O258   2.349       .  S
Zr241       O245   2.339       .  S
Zr241       O256   2.345       .  S
Zr242       O246   2.345   1_655  S
Zr242       O256   2.334       .  S
Zr243       O245   2.347       .  S
Zr243       O258   2.324   1_655  S
Zr244       O245   2.327   1_455  S
Zr244       O246   2.336       .  S
Zr244       O258   2.353       .  S
Zr244       O256   2.355   1_455  S
C247       C1396   1.450       .  S
C248       C1276   1.481       .  S
C249       C1309   1.501       .  S
C250       C1381   1.481       .  S
C251       C1357   1.447       .  S
C252       C1333   1.514       .  S
C253       C1297   1.482       .  S
C254       C1348   1.513       .  S
H255        O256   0.964       .  S
H257        O258   0.965       .  S
O259       Zr295   2.410       .  S
O259        C270   1.287       .  A
O260       Zr294   2.425       .  S
O260        C271   1.290   1_455  A
O261       Zr267   2.467       .  S
O261        C272   1.298       .  A
O262       Zr267   2.455       .  S
O262        C273   1.295       .  A
O263       Zr297   2.438       .  S
O263        C273   1.292       .  A
O264       Zr296   2.471       .  S
O264        C272   1.298       .  A
O265       Zr267   2.433       .  S
O265        C271   1.291       .  A
O266       Zr267   2.427       .  S
O266        C270   1.291       .  A
Zr267       O268   2.350       .  S
Zr267       O269   2.338       .  S
Zr267       O277   2.342       .  S
Zr267       O275   2.333       .  S
O268       Zr294   2.346   1_655  S
O268       Zr297   2.347       .  S
O269       Zr295   2.339       .  S
O269       Zr296   2.323       .  S
C270       C1693   1.467       .  S
C271       C1165   1.475       .  S
C272       C1240   1.512       .  S
C273       C1189   1.474       .  S
H274        O275   0.966       .  S
O275       Zr294   2.348   1_655  S
O275       Zr296   2.353       .  S
H276        O277   0.965       .  S
O277       Zr295   2.334       .  S
O277       Zr297   2.349       .  S
O278       Zr294   2.440       .  S
O278        C301   1.291       .  A
O279       Zr295   2.433       .  S
O279        C302   1.291       .  A
O280       Zr296   2.426   1_455  S
O280        C303   1.289       .  A
O281       Zr297   2.465   1_455  S
O281        C304   1.298       .  A
O282       Zr297   2.465       .  S
O282        C305   1.296       .  A
O283       Zr296   2.454       .  S
O283        C306   1.297       .  A
O284       Zr298   2.413       .  S
O284        C307   1.289       .  A
O285       Zr298   2.419       .  S
O285        C308   1.288       .  A
O286       Zr296   2.447   1_455  S
O286        C307   1.294       .  A
O287       Zr297   2.443   1_455  S
O287        C308   1.294       .  A
O288       Zr294   2.435       .  S
O288        C303   1.293       .  A
O289       Zr295   2.425       .  S
O289        C306   1.288       .  A
O290       Zr295   2.431       .  S
O290        C305   1.292       .  A
O291       Zr294   2.461       .  S
O291        C304   1.297       .  A
O292       Zr298   2.447       .  S
O292        C301   1.293       .  A
O293       Zr298   2.434       .  S
O293        C302   1.291   1_455  A
Zr294       O300   2.331       .  S
Zr294       O312   2.336       .  S
Zr295       O299   2.325       .  S
Zr295       O310   2.335       .  S
Zr296       O300   2.340   1_655  S
Zr296       O310   2.354       .  S
Zr297       O299   2.332       .  S
Zr297       O312   2.357   1_655  S
Zr298       O299   2.334   1_455  S
Zr298       O300   2.325       .  S
Zr298       O312   2.331       .  S
Zr298       O310   2.342   1_455  S
C301       C1420   1.478       .  S
C302       C1153   1.480       .  S
C303       C1225   1.482       .  S
C304       C1201   1.492       .  S
C305       C1177   1.499       .  S
C306       C1249   1.496       .  S
C307       C1261   1.482       .  S
C308       C1213   1.482       .  S
H309        O310   0.966       .  S
H311        O312   0.965       .  S
C313        C314   1.550       .  S
C313        C319   1.534       .  S
C313        C317   1.534       .  S
C313       C1132   1.540       .  S
C314        H321   1.081       .  S
C314        C315   1.370       .  D
C315        C316   1.546       .  S
C315       C1192   1.507       .  S
C316        C320   1.540       .  S
C316        C318   1.536       .  S
C316        H322   1.107       .  S
C317        H323   1.086       .  S
C317        C318   1.362       .  D
C318       C1324   1.480       .  S
C319        H324   1.086       .  S
C319        C320   1.364       .  D
C320       C1141   1.476       .  S
C325        C326   1.558       .  S
C325        C331   1.521       .  S
C325        C329   1.536       .  S
C325       C1105   1.537       .  S
C326        H333   1.082       .  S
C326        C327   1.377       .  D
C327        C328   1.537       .  S
C327       C1312   1.494       .  S
C328        C332   1.550       .  S
C328        C330   1.555       .  S
C328        H334   1.109       .  S
C329        H335   1.087       .  S
C329        C330   1.363       .  D
C330       C1204   1.497       .  S
C331        H336   1.087       .  S
C331        C332   1.353       .  D
C332       C1117   1.481       .  S
C337        C338   1.547   1_545  S
C337        C343   1.530       .  S
C337        C341   1.540       .  S
C337       C1576   1.535       .  S
C338        H345   1.080       .  S
C338        C339   1.360       .  D
C339        C340   1.528   1_565  S
C339       C1360   1.464       .  S
C340        C344   1.530       .  S
C340        C342   1.543       .  S
C340        H346   1.110       .  S
C341        H347   1.086       .  S
C341        C342   1.371       .  D
C342       C1252   1.497       .  S
C343        H348   1.087       .  S
C343        C344   1.360       .  D
C344       C1096   1.470       .  S
C349        C350   1.543       .  S
C349        C355   1.522   1_545  S
C349        C353   1.562   1_545  S
C349       C1744   1.546       .  S
C350        H357   1.086       .  S
C350        C351   1.368       .  D
C351        C352   1.549       .  S
C351       C1237   1.500       .  S
C352        C356   1.552   1_545  S
C352        C354   1.538   1_545  S
C352        H358   1.110       .  S
C353        H359   1.082       .  S
C353        C354   1.377       .  D
C354       C1372   1.498       .  S
C355        H360   1.088       .  S
C355        C356   1.351       .  D
C356       C1081   1.486       .  S
C361        C362   1.548       .  S
C361        C367   1.522       .  S
C361        C365   1.539       .  S
C361       C1060   1.547       .  S
C362        H369   1.082       .  S
C362        C363   1.370       .  D
C363        C364   1.551       .  S
C363       C1336   1.508       .  S
C364        C368   1.558       .  S
C364        C366   1.548       .  S
C364        H370   1.107       .  S
C365        H371   1.086       .  S
C365        C366   1.369       .  D
C366       C1180   1.483       .  S
C367        H372   1.087       .  S
C367        C368   1.362       .  D
C368       C1069   1.512       .  S
C373        C374   1.543       .  S
C373        C379   1.523       .  S
C373        C377   1.548       .  S
C373       C1036   1.537       .  S
C374        H381   1.085       .  S
C374        C375   1.372       .  D
C375        C376   1.537       .  S
C375       C1216   1.490       .  S
C376        C380   1.544       .  S
C376        C378   1.548       .  S
C376        H382   1.107       .  S
C377        H383   1.083       .  S
C377        C378   1.371       .  D
C378       C1300   1.504       .  S
C379        H384   1.087       .  S
C379        C380   1.357       .  D
C380       C1048   1.484       .  S
C385        C386   1.531       .  S
C385        C391   1.521       .  S
C385        C389   1.548   1_545  S
C385       C1561   1.539       .  S
C386        H393   1.084       .  S
C386        C387   1.361       .  D
C387        C388   1.552       .  S
C387       C1264   1.472       .  S
C388        C392   1.549       .  S
C388        C390   1.556   1_545  S
C388        H394   1.101       .  S
C389        H395   1.084       .  S
C389        C390   1.382       .  D
C390       C1345   1.527       .  S
C391        H396   1.088       .  S
C391        C392   1.358       .  D
C392       C1021   1.501       .  S
C397        C398   1.536   1_545  S
C397        C403   1.533       .  S
C397        C401   1.548       .  S
C397       C1732   1.532       .  S
C398        H405   1.084       .  S
C398        C399   1.363       .  D
C399        C400   1.540   1_565  S
C399       C1384   1.477       .  S
C400        C404   1.530       .  S
C400        C402   1.542       .  S
C400        H406   1.109       .  S
C401        H407   1.084       .  S
C401        C402   1.368       .  D
C402       C1228   1.491       .  S
C403        H408   1.087       .  S
C403        C404   1.359       .  D
C404       C1009   1.479       .  S
O409       Zr445   2.465       .  S
O409        C420   1.296       .  A
O410       Zr444   2.448       .  S
O410        C421   1.294       .  A
O411       Zr417   2.417       .  S
O411        C422   1.288       .  A
O412       Zr417   2.420       .  S
O412        C423   1.289       .  A
O413       Zr447   2.444   1_554  S
O413        C423   1.293       .  A
O414       Zr446   2.445   1_554  S
O414        C422   1.294       .  A
O415       Zr417   2.432       .  S
O415        C421   1.289       .  A
O416       Zr417   2.430       .  S
O416        C420   1.290   1_554  A
Zr417       O418   2.320       .  S
Zr417       O419   2.336   1_554  S
Zr417       O427   2.332   1_554  S
Zr417       O425   2.335       .  S
O418       Zr444   2.329       .  S
O418       Zr447   2.333   1_554  S
O419       Zr445   2.341       .  S
O419       Zr446   2.346       .  S
C420       C1513   1.495       .  S
C421       C1057   1.503       .  S
C422        C925   1.468       .  S
C423       C1000   1.476       .  S
H424        O425   0.965       .  S
O425       Zr444   2.327       .  S
O425       Zr446   2.363   1_554  S
H426        O427   0.965       .  S
O427       Zr445   2.333       .  S
O427       Zr447   2.349       .  S
O428       Zr444   2.412       .  S
O428        C451   1.288   1_554  A
O429       Zr445   2.450       .  S
O429        C452   1.295       .  A
O430       Zr446   2.450   1_554  S
O430        C453   1.294       .  A
O431       Zr447   2.449   1_554  S
O431        C454   1.294       .  A
O432       Zr447   2.469       .  S
O432        C455   1.298       .  A
O433       Zr446   2.436       .  S
O433        C456   1.291       .  A
O434       Zr448   2.447       .  S
O434        C457   1.292       .  A
O435       Zr448   2.445       .  S
O435        C458   1.294       .  A
O436       Zr446   2.489       .  S
O436        C457   1.303       .  A
O437       Zr447   2.439       .  S
O437        C458   1.292       .  A
O438       Zr444   2.452       .  S
O438        C453   1.295       .  A
O439       Zr445   2.428       .  S
O439        C456   1.290       .  A
O440       Zr445   2.455       .  S
O440        C455   1.295       .  A
O441       Zr444   2.437       .  S
O441        C454   1.293       .  A
O442       Zr448   2.450       .  S
O442        C451   1.294       .  A
O443       Zr448   2.425       .  S
O443        C452   1.290       .  A
Zr444       O450   2.346   1_554  S
Zr444       O462   2.346   1_554  S
Zr445       O449   2.350       .  S
Zr445       O460   2.349       .  S
Zr446       O450   2.332       .  S
Zr446       O460   2.344       .  S
Zr447       O449   2.340       .  S
Zr447       O462   2.360       .  S
Zr448       O449   2.354       .  S
Zr448       O450   2.332       .  S
Zr448       O462   2.341       .  S
Zr448       O460   2.337       .  S
C451       C1441   1.477       .  S
C452       C1129   1.479       .  S
C453        C913   1.478       .  S
C454        C961   1.490       .  S
C455        C985   1.496       .  S
C456        C937   1.460       .  S
C457        C949   1.521       .  S
C458        C976   1.491       .  S
H459        O460   0.965       .  S
H461        O462   0.966       .  S
O463       Zr499   2.433       .  S
O463        C474   1.290   1_556  A
O464       Zr498   2.456       .  S
O464        C475   1.296       .  A
O465       Zr471   2.444       .  S
O465        C476   1.293       .  A
O466       Zr471   2.435       .  S
O466        C477   1.291       .  A
O467       Zr501   2.464   1_554  S
O467        C477   1.298       .  A
O468       Zr500   2.435       .  S
O468        C476   1.291       .  A
O469       Zr471   2.425       .  S
O469        C475   1.289       .  A
O470       Zr471   2.442       .  S
O470        C474   1.293       .  A
Zr471       O472   2.339       .  S
Zr471       O473   2.333       .  S
Zr471       O481   2.348       .  S
Zr471       O479   2.351       .  S
O472       Zr498   2.344       .  S
O472       Zr501   2.348   1_554  S
O473       Zr499   2.334   1_554  S
O473       Zr500   2.343       .  S
C474       C1540   1.488       .  S
C475       C1033   1.493       .  S
C476        C844   1.470       .  S
C477        C892   1.501       .  S
H478        O479   0.966       .  S
O479       Zr498   2.351       .  S
O479       Zr500   2.334       .  S
H480        O481   0.965       .  S
O481       Zr499   2.335   1_554  S
O481       Zr501   2.332   1_554  S
O482       Zr498   2.458       .  S
O482        C505   1.296   1_554  A
O483       Zr499   2.420       .  S
O483        C506   1.288       .  A
O484       Zr500   2.455       .  S
O484        C507   1.296       .  A
O485       Zr501   2.429   1_554  S
O485        C508   1.290       .  A
O486       Zr501   2.447       .  S
O486        C509   1.294       .  A
O487       Zr500   2.450   1_556  S
O487        C510   1.293       .  A
O488       Zr502   2.438       .  S
O488        C511   1.292       .  A
O489       Zr502   2.438       .  S
O489        C512   1.292       .  A
O490       Zr500   2.422   1_556  S
O490        C511   1.288       .  A
O491       Zr501   2.457       .  S
O491        C512   1.295       .  A
O492       Zr498   2.451       .  S
O492        C507   1.294       .  A
O493       Zr499   2.426       .  S
O493        C510   1.289       .  A
O494       Zr499   2.435       .  S
O494        C509   1.291       .  A
O495       Zr498   2.434       .  S
O495        C508   1.291       .  A
O496       Zr502   2.463       .  S
O496        C505   1.297       .  A
O497       Zr502   2.464       .  S
O497        C506   1.298       .  A
Zr498       O504   2.340       .  S
Zr498       O516   2.351   1_554  S
Zr499       O503   2.335       .  S
Zr499       O514   2.340       .  S
Zr500       O504   2.347       .  S
Zr500       O514   2.330   1_554  S
Zr501       O503   2.339       .  S
Zr501       O516   2.337       .  S
Zr502       O503   2.340       .  S
Zr502       O504   2.344   1_556  S
Zr502       O516   2.346       .  S
Zr502       O514   2.341       .  S
C505       C1465   1.504       .  S
C506       C1108   1.489       .  S
C507        C832   1.496       .  S
C508        C901   1.460       .  S
C509        C880   1.487       .  S
C510        C856   1.467       .  S
C511        C820   1.458       .  S
C512        C865   1.478       .  S
H513        O514   0.964       .  S
H515        O516   0.965       .  S
C517        C518   1.558       .  S
C517        C523   1.522       .  S
C517        C521   1.537   1_455  S
C517       C1288   1.535   1_455  S
C518        H525   1.081       .  S
C518        C519   1.374       .  D
C519        C520   1.536       .  S
C519        C853   1.487       .  S
C520        C524   1.547       .  S
C520        C522   1.550   1_455  S
C520        H526   1.110       .  S
C521        H527   1.086       .  S
C521        C522   1.364       .  D
C522        C988   1.497       .  S
C523        H528   1.087       .  S
C523        C524   1.352       .  D
C524        C805   1.476       .  S
C529        C530   1.541       .  S
C529        C535   1.529   1_655  S
C529        C533   1.552   1_655  S
C529       C1168   1.533       .  S
C530        H537   1.086       .  S
C530        C531   1.366       .  D
C531        C532   1.534       .  S
C531        C973   1.479       .  S
C532        C536   1.534   1_655  S
C532        C534   1.530   1_655  S
C532        H538   1.111       .  S
C533        H539   1.078       .  S
C533        C534   1.362       .  D
C534        C817   1.475       .  S
C535        H540   1.087       .  S
C535        C536   1.361       .  D
C536        C796   1.474       .  S
C541        C542   1.532       .  S
C541        C547   1.543       .  S
C541        C545   1.541       .  S
C541       C1813   1.538       .  S
C542        H549   1.087       .  S
C542        C543   1.362       .  D
C543        C544   1.547       .  S
C543        C877   1.484       .  S
C544        C548   1.544       .  S
C544        C546   1.540       .  S
C544        H550   1.110       .  S
C545        H551   1.086       .  S
C545        C546   1.365       .  D
C546        C940   1.484       .  S
C547        H552   1.079       .  S
C547        C548   1.365       .  D
C548        C781   1.493       .  S
C553        C554   1.537       .  S
C553        C559   1.524       .  S
C553        C557   1.545       .  S
C553       C1636   1.536       .  S
C554        H561   1.084       .  S
C554        C555   1.362       .  D
C555        C556   1.539       .  S
C555        C928   1.470       .  S
C556        C560   1.547       .  S
C556        C558   1.556       .  S
C556        H562   1.103       .  S
C557        H563   1.084       .  S
C557        C558   1.382       .  D
C558        C889   1.521       .  S
C559        H564   1.087       .  S
C559        C560   1.355       .  D
C560        C769   1.499       .  S
C565        C566   1.532   1_655  S
C565        C571   1.525       .  S
C565        C569   1.556       .  S
C565       C1156   1.534       .  S
C566        H573   1.086       .  S
C566        C567   1.362       .  D
C567        C568   1.551   1_455  S
C567        C829   1.490       .  S
C568        C572   1.547       .  S
C568        C570   1.540       .  S
C568        H574   1.107       .  S
C569        H575   1.079       .  S
C569        C570   1.375       .  D
C570        C964   1.497       .  S
C571        H576   1.087       .  S
C571        C572   1.356       .  D
C572        C760   1.490       .  S
C577        C578   1.551       .  S
C577        C583   1.533       .  S
C577        C581   1.541   1_655  S
C577       C1273   1.544       .  S
C578        H585   1.079       .  S
C578        C579   1.357       .  D
C579        C580   1.522       .  S
C579        C997   1.464       .  S
C580        C584   1.542       .  S
C580        C582   1.546   1_655  S
C580        H586   1.103       .  S
C581        H587   1.085       .  S
C581        C582   1.377       .  D
C582        C841   1.510       .  S
C583        H588   1.086       .  S
C583        C584   1.363       .  D
C584        C745   1.479       .  S
C589        C590   1.545       .  S
C589        C595   1.534       .  S
C589        C593   1.549       .  S
C589       C1804   1.554       .  S
C590        H597   1.086       .  S
C590        C591   1.377       .  D
C591        C592   1.553       .  S
C591        C952   1.520       .  S
C592        C596   1.549       .  S
C592        C594   1.541       .  S
C592        H598   1.108       .  S
C593        H599   1.082       .  S
C593        C594   1.370       .  D
C594        C868   1.488       .  S
C595        H600   1.086       .  S
C595        C596   1.357       .  D
C596        C733   1.494       .  S
C601        C602   1.556       .  S
C601        C607   1.527       .  S
C601        C605   1.539       .  S
C601       C1624   1.541       .  S
C602        H609   1.081       .  S
C602        C603   1.361       .  D
C603        C604   1.525       .  S
C603        C904   1.476       .  S
C604        C608   1.539       .  S
C604        C606   1.546       .  S
C604        H610   1.109       .  S
C605        H611   1.084       .  S
C605        C606   1.371       .  D
C606        C916   1.501       .  S
C607        H612   1.087       .  S
C607        C608   1.362       .  D
C608        C721   1.473       .  S
O613       Zr649   2.495       .  S
O613        C624   1.302       .  A
O614       Zr648   2.448       .  S
O614        C625   1.293       .  A
O615       Zr621   2.454       .  S
O615        C626   1.294       .  A
O616       Zr621   2.514       .  S
O616        C627   1.305       .  A
O617       Zr651   2.370       .  S
O617        C627   1.279       .  A
O618       Zr650   2.409       .  S
O618        C626   1.289       .  A
O619       Zr621   2.414       .  S
O619        C625   1.289       .  A
O620       Zr621   2.388       .  S
O620        C624   1.283       .  A
Zr621       O622   2.325       .  S
Zr621       O623   2.348       .  S
Zr621       O631   2.325       .  S
Zr621       O629   2.357       .  S
O622       Zr648   2.340       .  S
O622       Zr651   2.312       .  S
O623       Zr649   2.330       .  S
O623       Zr650   2.322       .  S
C624       C1720   1.480       .  S
C625        C724   1.462       .  S
C626       C1432   1.476       .  S
C627       C1072   1.476       .  S
H628        O629   0.966       .  S
O629       Zr648   2.362       .  S
O629       Zr650   2.347       .  S
H630        O631   0.965       .  S
O631       Zr649   2.332       .  S
O631       Zr651   2.336       .  S
O632       Zr648   2.499       .  S
O632        C655   1.302       .  A
O633       Zr649   2.469       .  S
O633        C656   1.297       .  A
O634       Zr650   2.478       .  S
O634        C657   1.297       .  A
O635       Zr651   2.496       .  S
O635        C658   1.302       .  A
O636       Zr651   2.454       .  S
O636        C659   1.294       .  A
O637       Zr650   2.507       .  S
O637        C660   1.304       .  A
O638       Zr652   2.526       .  S
O638        C661   1.308       .  A
O639       Zr652   2.508       .  S
O639        C662   1.303       .  A
O640       Zr650   2.366       .  S
O640        C661   1.275       .  A
O641       Zr651   2.368       .  S
O641        C662   1.272       .  A
O642       Zr648   2.410       .  S
O642        C657   1.286       .  A
O643       Zr649   2.391       .  S
O643        C660   1.285       .  A
O644       Zr649   2.415       .  S
O644        C659   1.289       .  A
O645       Zr648   2.399       .  S
O645        C658   1.286       .  A
O646       Zr652   2.378       .  S
O646        C655   1.282       .  A
O647       Zr652   2.420       .  S
O647        C656   1.290       .  A
Zr648       O654   2.327       .  S
Zr648       O666   2.330       .  S
Zr649       O653   2.353       .  S
Zr649       O664   2.340       .  S
Zr650       O654   2.346       .  S
Zr650       O664   2.331       .  S
Zr651       O653   2.346       .  S
Zr651       O666   2.332       .  S
Zr652       O653   2.357       .  S
Zr652       O654   2.340       .  S
Zr652       O666   2.353       .  S
Zr652       O664   2.332       .  S
C655       C1408   1.480       .  S
C656        C784   1.469       .  S
C657       C1045   1.478       .  S
C658        C772   1.495       .  S
C659       C1144   1.469       .  S
C660        C736   1.495       .  S
C661       C1120   1.498       .  S
C662       C1504   1.506       .  S
H663        O664   0.964       .  S
H665        O666   0.965       .  S
O667       Zr703   2.493       .  S
O667        C678   1.301       .  A
O668       Zr702   2.473   1_455  S
O668        C679   1.297       .  A
O669       Zr675   2.500       .  S
O669        C680   1.304       .  A
O670       Zr675   2.463   1_545  S
O670        C681   1.296       .  A
O671       Zr705   2.419       .  S
O671        C681   1.289   1_554  A
O672       Zr704   2.380       .  S
O672        C680   1.280   1_655  A
O673       Zr675   2.401   1_545  S
O673        C679   1.285       .  A
O674       Zr675   2.387       .  S
O674        C678   1.284   1_556  A
Zr675       O676   2.354   1_565  S
Zr675       O677   2.321       .  S
Zr675       O685   2.339   1_566  S
Zr675       O683   2.326   1_455  S
O676       Zr702   2.343   1_455  S
O676       Zr705   2.343   1_556  S
O677       Zr703   2.330   1_556  S
O677       Zr704   2.350   1_455  S
C678       C1549   1.485       .  S
C679       C1012   1.466       .  S
C680        C808   1.492       .  S
C681       C1480   1.468       .  S
H682        O683   0.963       .  S
O683       Zr702   2.348   1_565  S
O683       Zr704   2.330       .  S
H684        O685   0.964       .  S
O685       Zr703   2.322   1_545  S
O685       Zr705   2.316       .  S
O686       Zr702   2.494       .  S
O686        C709   1.302       .  A
O687       Zr703   2.440   1_655  S
O687        C710   1.291       .  A
O688       Zr704   2.530       .  S
O688        C711   1.309       .  A
O689       Zr705   2.444   1_556  S
O689        C712   1.292       .  A
O690       Zr705   2.465       .  S
O690        C713   1.296       .  A
O691       Zr704   2.487   1_554  S
O691        C714   1.300       .  A
O692       Zr706   2.471       .  S
O692        C715   1.297   1_545  A
O693       Zr706   2.495       .  S
O693        C716   1.302       .  A
O694       Zr704   2.406       .  S
O694        C715   1.287   1_556  A
O695       Zr705   2.385       .  S
O695        C716   1.283   1_455  A
O696       Zr702   2.386       .  S
O696        C711   1.279   1_545  A
O697       Zr703   2.389   1_655  S
O697        C714   1.285       .  A
O698       Zr703   2.395   1_545  S
O698        C713   1.284       .  A
O699       Zr702   2.416       .  S
O699        C712   1.288   1_655  A
O700       Zr706   2.374       .  S
O700        C709   1.281   1_554  A
O701       Zr706   2.412       .  S
O701        C710   1.288   1_545  A
Zr702       O708   2.333       .  S
Zr702       O720   2.318   1_556  S
Zr703       O707   2.336   1_465  S
Zr703       O718   2.362   1_455  S
Zr704       O708   2.329   1_565  S
Zr704       O718   2.360   1_556  S
Zr705       O707   2.331   1_455  S
Zr705       O720   2.336   1_455  S
Zr706       O707   2.332       .  S
Zr706       O708   2.342   1_554  S
Zr706       O720   2.333       .  S
Zr706       O718   2.346   1_545  S
C709       C1456   1.480       .  S
C710       C1093   1.460       .  S
C711       C1084   1.505       .  S
C712        C793   1.460       .  S
C713       C1024   1.467       .  S
C714        C748   1.481       .  S
C715       C1525   1.472       .  S
C716        C757   1.488       .  S
H717        O718   0.966       .  S
H719        O720   0.964       .  S
C721        C722   1.405       .  A
C721        C726   1.409       .  A
C722        C723   1.397       .  A
C722        H731   1.084       .  S
C723        C724   1.406       .  A
C723        S727   1.802       .  S
C724        C725   1.403       .  A
C725        C726   1.396       .  A
C725        H732   1.082       .  S
C726        S728   1.802       .  S
S727        H730   1.405       .  S
S728        H729   1.405       .  S
C733        C734   1.414       .  A
C733        C738   1.406       .  A
C734        C735   1.407       .  A
C734        H743   1.084       .  S
C735        C736   1.409       .  A
C735        S739   1.798       .  S
C736        C737   1.415       .  A
C737        C738   1.401       .  A
C737        H744   1.082       .  S
C738        S740   1.808       .  S
S739        H742   1.405       .  S
S740        H741   1.406       .  S
C745        C746   1.410       .  A
C745        C750   1.407   1_655  A
C746        C747   1.410       .  A
C746        H755   1.083       .  S
C747        C748   1.412       .  A
C747        S751   1.802       .  S
C748        C749   1.405   1_655  A
C749        C750   1.392       .  A
C749        H756   1.083       .  S
C750        S752   1.804       .  S
S751        H754   1.406       .  S
S752        H753   1.401       .  S
C757        C758   1.414       .  A
C757        C762   1.408       .  A
C758        C759   1.397       .  A
C758        H767   1.082   1_655  S
C759        C760   1.405       .  A
C759        S763   1.807   1_655  S
C760        C761   1.415       .  A
C761        C762   1.404       .  A
C761        H768   1.084       .  S
C762        S764   1.800       .  S
S763        H766   1.407       .  S
S764        H765   1.407       .  S
C769        C770   1.414       .  A
C769        C774   1.410       .  A
C770        C771   1.407       .  A
C770        H779   1.084       .  S
C771        C772   1.411       .  A
C771        S775   1.798       .  S
C772        C773   1.412       .  A
C773        C774   1.399       .  A
C773        H780   1.084       .  S
C774        S776   1.800       .  S
S775        H778   1.407       .  S
S776        H777   1.406       .  S
C781        C782   1.408       .  A
C781        C786   1.411       .  A
C782        C783   1.394       .  A
C782        H791   1.084       .  S
C783        C784   1.406       .  A
C783        S787   1.807       .  S
C784        C785   1.407       .  A
C785        C786   1.409       .  A
C785        H792   1.082       .  S
C786        S788   1.803       .  S
S787        H790   1.406       .  S
S788        H789   1.408       .  S
C793        C794   1.397       .  A
C793        C798   1.409   1_455  A
C794        C795   1.396       .  A
C794        H803   1.084       .  S
C795        C796   1.416       .  A
C795        S799   1.803       .  S
C796        C797   1.399   1_455  A
C797        C798   1.400       .  A
C797        H804   1.083       .  S
C798        S800   1.805       .  S
S799        H802   1.405       .  S
S800        H801   1.407       .  S
C805        C806   1.386   1_455  A
C805        C810   1.420       .  A
C806        C807   1.394       .  A
C806        H815   1.084       .  S
C807        C808   1.431   1_655  A
C807        S811   1.805       .  S
C808        C809   1.402       .  A
C809        C810   1.402       .  A
C809        H816   1.084       .  S
C810        S812   1.806       .  S
S811        H814   1.408       .  S
S812        H813   1.404       .  S
C817        C818   1.401       .  A
C817        C822   1.416       .  A
C818        C819   1.390       .  A
C818        H827   1.084       .  S
C819        C820   1.407       .  A
C819        S823   1.798       .  S
C820        C821   1.399       .  A
C821        C822   1.397       .  A
C821        H828   1.082       .  S
C822        S824   1.805       .  S
S823        H826   1.401       .  S
S824        H825   1.405       .  S
C829        C830   1.401       .  A
C829        C834   1.415       .  A
C830        C831   1.406       .  A
C830        H839   1.084       .  S
C831        C832   1.422       .  A
C831        S835   1.803       .  S
C832        C833   1.406       .  A
C833        C834   1.402       .  A
C833        H840   1.084       .  S
C834        S836   1.801       .  S
S835        H838   1.402       .  S
S836        H837   1.403       .  S
C841        C842   1.415       .  A
C841        C846   1.425       .  A
C842        C843   1.399       .  A
C842        H851   1.082       .  S
C843        C844   1.405       .  A
C843        S847   1.806       .  S
C844        C845   1.398       .  A
C845        C846   1.404       .  A
C845        H852   1.084       .  S
C846        S848   1.805       .  S
S847        H850   1.406       .  S
S848        H849   1.408       .  S
C853        C854   1.402       .  A
C853        C858   1.415       .  A
C854        C855   1.397       .  A
C854        H863   1.082       .  S
C855        C856   1.412       .  A
C855        S859   1.807       .  S
C856        C857   1.401       .  A
C857        C858   1.403       .  A
C857        H864   1.083       .  S
C858        S860   1.805       .  S
S859        H862   1.399       .  S
S860        H861   1.407       .  S
C865        C866   1.402       .  A
C865        C870   1.412       .  A
C866        C867   1.406       .  A
C866        H875   1.083       .  S
C867        C868   1.416       .  A
C867        S871   1.807       .  S
C868        C869   1.403       .  A
C869        C870   1.401       .  A
C869        H876   1.084       .  S
C870        S872   1.801       .  S
S871        H874   1.407       .  S
S872        H873   1.406       .  S
C877        C878   1.401       .  A
C877        C882   1.410       .  A
C878        C879   1.402       .  A
C878        H887   1.084       .  S
C879        C880   1.420       .  A
C879        S883   1.803       .  S
C880        C881   1.404       .  A
C881        C882   1.402       .  A
C881        H888   1.083       .  S
C882        S884   1.799       .  S
S883        H886   1.403       .  S
S884        H885   1.407       .  S
C889        C890   1.411       .  A
C889        C894   1.428       .  A
C890        C891   1.401       .  A
C890        H899   1.082       .  S
C891        C892   1.418       .  A
C891        S895   1.804       .  S
C892        C893   1.404       .  A
C893        C894   1.409       .  A
C893        H900   1.082       .  S
C894        S896   1.805       .  S
S895        H898   1.408       .  S
S896        H897   1.407       .  S
C901        C902   1.399       .  A
C901        C906   1.410       .  A
C902        C903   1.397       .  A
C902        H911   1.084       .  S
C903        C904   1.414       .  A
C903        S907   1.802       .  S
C904        C905   1.402       .  A
C905        C906   1.397       .  A
C905        H912   1.084       .  S
C906        S908   1.806       .  S
S907        H910   1.403       .  S
S908        H909   1.405       .  S
C913        C914   1.400       .  A
C913        C918   1.407       .  A
C914        C915   1.409       .  A
C914        H923   1.083       .  S
C915        C916   1.425       .  A
C915        S919   1.809       .  S
C916        C917   1.404       .  A
C917        C918   1.395       .  A
C917        H924   1.080       .  S
C918        S920   1.793       .  S
S919        H922   1.407       .  S
S920        H921   1.403       .  S
C925        C926   1.401       .  A
C925        C930   1.417       .  A
C926        C927   1.396       .  A
C926        H935   1.084       .  S
C927        C928   1.414       .  A
C927        S931   1.805       .  S
C928        C929   1.398       .  A
C929        C930   1.396       .  A
C929        H936   1.084       .  S
C930        S932   1.809       .  S
S931        H934   1.401       .  S
S932        H933   1.403       .  S
C937        C938   1.397       .  A
C937        C942   1.409       .  A
C938        C939   1.395       .  A
C938        H947   1.084       .  S
C939        C940   1.412       .  A
C939        S943   1.800       .  S
C940        C941   1.407       .  A
C941        C942   1.401       .  A
C941        H948   1.084       .  S
C942        S944   1.806       .  S
S943        H946   1.407       .  S
S944        H945   1.405       .  S
C949        C950   1.408       .  A
C949        C954   1.427       .  A
C950        C951   1.413       .  A
C950        H959   1.082       .  S
C951        C952   1.422       .  A
C951        S955   1.800       .  S
C952        C953   1.407       .  A
C953        C954   1.410       .  A
C953        H960   1.084       .  S
C954        S956   1.803       .  S
S955        H958   1.407       .  S
S956        H957   1.408       .  S
C961        C962   1.408       .  A
C961        C966   1.416       .  A
C962        C963   1.401       .  A
C962        H971   1.084       .  S
C963        C964   1.417       .  A
C963        S967   1.804       .  S
C964        C965   1.406       .  A
C965        C966   1.397       .  A
C965        H972   1.082       .  S
C966        S968   1.803       .  S
S967        H970   1.408       .  S
S968        H969   1.408       .  S
C973        C974   1.400       .  A
C973        C978   1.410       .  A
C974        C975   1.396       .  A
C974        H983   1.083       .  S
C975        C976   1.418       .  A
C975        S979   1.803       .  S
C976        C977   1.411       .  A
C977        C978   1.404       .  A
C977        H984   1.083       .  S
C978        S980   1.803       .  S
S979        H982   1.408       .  S
S980        H981   1.406       .  S
C985        C986   1.403       .  A
C985        C990   1.421       .  A
C986        C987   1.409       .  A
C986        H995   1.082       .  S
C987        C988   1.415       .  A
C987        S991   1.802       .  S
C988        C989   1.401       .  A
C989        C990   1.408       .  A
C989        H996   1.084       .  S
C990        S992   1.802       .  S
S991        H994   1.407       .  S
S992        H993   1.403       .  S
C997        C998   1.394       .  A
C997       C1002   1.410       .  A
C998        C999   1.391       .  A
C998       H1007   1.084       .  S
C999       C1000   1.418       .  A
C999       S1003   1.805       .  S
C1000      C1001   1.407       .  A
C1001      C1002   1.400       .  A
C1001      H1008   1.084       .  S
C1002      S1004   1.805       .  S
S1003      H1006   1.404       .  S
S1004      H1005   1.404       .  S
C1009      C1010   1.397       .  A
C1009      C1014   1.413       .  A
C1010      C1011   1.397       .  A
C1010      H1019   1.083   1_545  S
C1011      C1012   1.416       .  A
C1011      S1015   1.804   1_545  S
C1012      C1013   1.399       .  A
C1013      C1014   1.399       .  A
C1013      H1020   1.084       .  S
C1014      S1016   1.796       .  S
S1015      H1018   1.400   1_455  S
S1016      H1017   1.406       .  S
C1021      C1022   1.410       .  A
C1021      C1026   1.423       .  A
C1022      C1023   1.392       .  A
C1022      H1031   1.084   1_545  S
C1023      C1024   1.406       .  A
C1023      S1027   1.807   1_545  S
C1024      C1025   1.401       .  A
C1025      C1026   1.405       .  A
C1025      H1032   1.084       .  S
C1026      S1028   1.799       .  S
S1027      H1030   1.407   1_565  S
S1028      H1029   1.382       .  S
C1033      C1034   1.404       .  A
C1033      C1038   1.417       .  A
C1034      C1035   1.404       .  A
C1034      H1043   1.083       .  S
C1035      C1036   1.425       .  A
C1035      S1039   1.809       .  S
C1036      C1037   1.409       .  A
C1037      C1038   1.399       .  A
C1037      H1044   1.081       .  S
C1038      S1040   1.805       .  S
S1039      H1042   1.407       .  S
S1040      H1041   1.409       .  S
C1045      C1046   1.402       .  A
C1045      C1050   1.416       .  A
C1046      C1047   1.404       .  A
C1046      H1055   1.084       .  S
C1047      C1048   1.418       .  A
C1047      S1051   1.805       .  S
C1048      C1049   1.397       .  A
C1049      C1050   1.399       .  A
C1049      H1056   1.084       .  S
C1050      S1052   1.802       .  S
S1051      H1054   1.406       .  S
S1052      H1053   1.401       .  S
C1057      C1058   1.406       .  A
C1057      C1062   1.421       .  A
C1058      C1059   1.405       .  A
C1058      H1067   1.082       .  S
C1059      C1060   1.424       .  A
C1059      S1063   1.810       .  S
C1060      C1061   1.412       .  A
C1061      C1062   1.405       .  A
C1061      H1068   1.074       .  S
C1062      S1064   1.813       .  S
S1063      H1066   1.407       .  S
S1064      H1065   1.407       .  S
C1069      C1070   1.413       .  A
C1069      C1074   1.420       .  A
C1070      C1071   1.395       .  A
C1070      H1079   1.083       .  S
C1071      C1072   1.408       .  A
C1071      S1075   1.807       .  S
C1072      C1073   1.406       .  A
C1073      C1074   1.414       .  A
C1073      H1080   1.080       .  S
C1074      S1076   1.805       .  S
S1075      H1078   1.403       .  S
S1076      H1077   1.407       .  S
C1081      C1082   1.385   1_565  A
C1081      C1086   1.422       .  A
C1082      C1083   1.397       .  A
C1082      H1091   1.082       .  S
C1083      C1084   1.437   1_545  A
C1083      S1087   1.810       .  S
C1084      C1085   1.404       .  A
C1085      C1086   1.409       .  A
C1085      H1092   1.083       .  S
C1086      S1088   1.806       .  S
S1087      H1090   1.407       .  S
S1088      H1089   1.405       .  S
C1093      C1094   1.404   1_565  A
C1093      C1098   1.408       .  A
C1094      C1095   1.396       .  A
C1094      H1103   1.085       .  S
C1095      C1096   1.407       .  A
C1095      S1099   1.803       .  S
C1096      C1097   1.405   1_545  A
C1097      C1098   1.397       .  A
C1097      H1104   1.084       .  S
C1098      S1100   1.804       .  S
S1099      H1102   1.406       .  S
S1100      H1101   1.405       .  S
C1105      C1106   1.406       .  A
C1105      C1110   1.427       .  A
C1106      C1107   1.402       .  A
C1106      H1115   1.075       .  S
C1107      C1108   1.420       .  A
C1107      S1111   1.810       .  S
C1108      C1109   1.400       .  A
C1109      C1110   1.402       .  A
C1109      H1116   1.083       .  S
C1110      S1112   1.813       .  S
S1111      H1114   1.407       .  S
S1112      H1113   1.407       .  S
C1117      C1118   1.381       .  A
C1117      C1122   1.419       .  A
C1118      C1119   1.391       .  A
C1118      H1127   1.080       .  S
C1119      C1120   1.436       .  A
C1119      S1123   1.808       .  S
C1120      C1121   1.404       .  A
C1121      C1122   1.407       .  A
C1121      H1128   1.083       .  S
C1122      S1124   1.803       .  S
S1123      H1126   1.408       .  S
S1124      H1125   1.406       .  S
C1129      C1130   1.401       .  A
C1129      C1134   1.409       .  A
C1130      C1131   1.409       .  A
C1130      H1139   1.083       .  S
C1131      C1132   1.428       .  A
C1131      S1135   1.809       .  S
C1132      C1133   1.410       .  A
C1133      C1134   1.391       .  A
C1133      H1140   1.076       .  S
C1134      S1136   1.804       .  S
S1135      H1138   1.407       .  S
S1136      H1137   1.408       .  S
C1141      C1142   1.399       .  A
C1141      C1146   1.413       .  A
C1142      C1143   1.398       .  A
C1142      H1151   1.083       .  S
C1143      C1144   1.412       .  A
C1143      S1147   1.808       .  S
C1144      C1145   1.399       .  A
C1145      C1146   1.400       .  A
C1145      H1152   1.084       .  S
C1146      S1148   1.795       .  S
S1147      H1150   1.407       .  S
S1148      H1149   1.406       .  S
C1153      C1154   1.398   1_655  A
C1153      C1158   1.412       .  A
C1154      C1155   1.403       .  A
C1154      H1163   1.083       .  S
C1155      C1156   1.428   1_455  A
C1155      S1159   1.813       .  S
C1156      C1157   1.406       .  A
C1157      C1158   1.394       .  A
C1157      H1164   1.076       .  S
C1158      S1160   1.797       .  S
S1159      H1162   1.407       .  S
S1160      H1161   1.407       .  S
C1165      C1166   1.402       .  A
C1165      C1170   1.411   1_655  A
C1166      C1167   1.404       .  A
C1166      H1175   1.083       .  S
C1167      C1168   1.424       .  A
C1167      S1171   1.810       .  S
C1168      C1169   1.408   1_655  A
C1169      C1170   1.388       .  A
C1169      H1176   1.072       .  S
C1170      S1172   1.803       .  S
S1171      H1174   1.407       .  S
S1172      H1173   1.401       .  S
C1177      C1178   1.412       .  A
C1177      C1182   1.418       .  A
C1178      C1179   1.402       .  A
C1178      H1187   1.082       .  S
C1179      C1180   1.412       .  A
C1179      S1183   1.809       .  S
C1180      C1181   1.402       .  A
C1181      C1182   1.402       .  A
C1181      H1188   1.082       .  S
C1182      S1184   1.802       .  S
S1183      H1186   1.400       .  S
S1184      H1185   1.408       .  S
C1189      C1190   1.403       .  A
C1189      C1194   1.406       .  A
C1190      C1191   1.407       .  A
C1190      H1199   1.083       .  S
C1191      C1192   1.420       .  A
C1191      S1195   1.806       .  S
C1192      C1193   1.414       .  A
C1193      C1194   1.400       .  A
C1193      H1200   1.083       .  S
C1194      S1196   1.807       .  S
S1195      H1198   1.407       .  S
S1196      H1197   1.405       .  S
C1201      C1202   1.410       .  A
C1201      C1206   1.416       .  A
C1202      C1203   1.409       .  A
C1202      H1211   1.084       .  S
C1203      C1204   1.413       .  A
C1203      S1207   1.802       .  S
C1204      C1205   1.406       .  A
C1205      C1206   1.404       .  A
C1205      H1212   1.084       .  S
C1206      S1208   1.807       .  S
S1207      H1210   1.405       .  S
S1208      H1209   1.399       .  S
C1213      C1214   1.403       .  A
C1213      C1218   1.417       .  A
C1214      C1215   1.395       .  A
C1214      H1223   1.084       .  S
C1215      C1216   1.416       .  A
C1215      S1219   1.796       .  S
C1216      C1217   1.405       .  A
C1217      C1218   1.394       .  A
C1217      H1224   1.083       .  S
C1218      S1220   1.801       .  S
S1219      H1222   1.405       .  S
S1220      H1221   1.405       .  S
C1225      C1226   1.405       .  A
C1225      C1230   1.415       .  A
C1226      C1227   1.398       .  A
C1226      H1235   1.084       .  S
C1227      C1228   1.421       .  A
C1227      S1231   1.807       .  S
C1228      C1229   1.404       .  A
C1229      C1230   1.395       .  A
C1229      H1236   1.079       .  S
C1230      S1232   1.812       .  S
S1231      H1234   1.400       .  S
S1232      H1233   1.407       .  S
C1237      C1238   1.405       .  A
C1237      C1242   1.414       .  A
C1238      C1239   1.410       .  A
C1238      H1247   1.084       .  S
C1239      C1240   1.422       .  A
C1239      S1243   1.803       .  S
C1240      C1241   1.412       .  A
C1241      C1242   1.410       .  A
C1241      H1248   1.084       .  S
C1242      S1244   1.806       .  S
S1243      H1246   1.408       .  S
S1244      H1245   1.402       .  S
C1249      C1250   1.404       .  A
C1249      C1254   1.421       .  A
C1250      C1251   1.399       .  A
C1250      H1259   1.082       .  S
C1251      C1252   1.417       .  A
C1251      S1255   1.801       .  S
C1252      C1253   1.406       .  A
C1253      C1254   1.401       .  A
C1253      H1260   1.084       .  S
C1254      S1256   1.803       .  S
S1255      H1258   1.408       .  S
S1256      H1257   1.408       .  S
C1261      C1262   1.408       .  A
C1261      C1266   1.415       .  A
C1262      C1263   1.392       .  A
C1262      H1271   1.084       .  S
C1263      C1264   1.412       .  A
C1263      S1267   1.811       .  S
C1264      C1265   1.402       .  A
C1265      C1266   1.399       .  A
C1265      H1272   1.084       .  S
C1266      S1268   1.803       .  S
S1267      H1270   1.399       .  S
S1268      H1269   1.408       .  S
C1273      C1274   1.411       .  A
C1273      C1278   1.426   1_655  A
C1274      C1275   1.392       .  A
C1274      H1283   1.072       .  S
C1275      C1276   1.408       .  A
C1275      S1279   1.801       .  S
C1276      C1277   1.403   1_655  A
C1277      C1278   1.409       .  A
C1277      H1284   1.083       .  S
C1278      S1280   1.809       .  S
S1279      H1282   1.406       .  S
S1280      H1281   1.407       .  S
C1285      C1286   1.399       .  A
C1285      C1290   1.413   1_655  A
C1286      C1287   1.406       .  A
C1286      H1295   1.083       .  S
C1287      C1288   1.429       .  A
C1287      S1291   1.813       .  S
C1288      C1289   1.403   1_655  A
C1289      C1290   1.394       .  A
C1289      H1296   1.076       .  S
C1290      S1292   1.792       .  S
S1291      H1294   1.406       .  S
S1292      H1293   1.406       .  S
C1297      C1298   1.398       .  A
C1297      C1302   1.413       .  A
C1298      C1299   1.402       .  A
C1298      H1307   1.084       .  S
C1299      C1300   1.426       .  A
C1299      S1303   1.803       .  S
C1300      C1301   1.407       .  A
C1301      C1302   1.407       .  A
C1301      H1308   1.083       .  S
C1302      S1304   1.802       .  S
S1303      H1306   1.405       .  S
S1304      H1305   1.406       .  S
C1309      C1310   1.405       .  A
C1309      C1314   1.426       .  A
C1310      C1311   1.399       .  A
C1310      H1319   1.081       .  S
C1311      C1312   1.413       .  A
C1311      S1315   1.799       .  S
C1312      C1313   1.403       .  A
C1313      C1314   1.406       .  A
C1313      H1320   1.082       .  S
C1314      S1316   1.812       .  S
S1315      H1318   1.407       .  S
S1316      H1317   1.407       .  S
C1321      C1322   1.411       .  A
C1321      C1326   1.419       .  A
C1322      C1323   1.397       .  A
C1322      H1331   1.083       .  S
C1323      C1324   1.414       .  A
C1323      S1327   1.807       .  S
C1324      C1325   1.402       .  A
C1325      C1326   1.399       .  A
C1325      H1332   1.084       .  S
C1326      S1328   1.802       .  S
S1327      H1330   1.397       .  S
S1328      H1329   1.408       .  S
C1333      C1334   1.413       .  A
C1333      C1338   1.421       .  A
C1334      C1335   1.405       .  A
C1334      H1343   1.083       .  S
C1335      C1336   1.416       .  A
C1335      S1339   1.805       .  S
C1336      C1337   1.406       .  A
C1337      C1338   1.409       .  A
C1337      H1344   1.080       .  S
C1338      S1340   1.799       .  S
S1339      H1342   1.407       .  S
S1340      H1341   1.408       .  S
C1345      C1346   1.410       .  A
C1345      C1350   1.429       .  A
C1346      C1347   1.404       .  A
C1346      H1355   1.083       .  S
C1347      C1348   1.422       .  A
C1347      S1351   1.801       .  S
C1348      C1349   1.406       .  A
C1349      C1350   1.413       .  A
C1349      H1356   1.082       .  S
C1350      S1352   1.804   1_565  S
S1351      H1354   1.408       .  S
S1352      H1353   1.407   1_545  S
C1357      C1358   1.395       .  A
C1357      C1362   1.410       .  A
C1358      C1359   1.386       .  A
C1358      H1367   1.082       .  S
C1359      C1360   1.412       .  A
C1359      S1363   1.806       .  S
C1360      C1361   1.403       .  A
C1361      C1362   1.396       .  A
C1361      H1368   1.084       .  S
C1362      S1364   1.810       .  S
S1363      H1366   1.404       .  S
S1364      H1365   1.403       .  S
C1369      C1370   1.401       .  A
C1369      C1374   1.412       .  A
C1370      C1371   1.406       .  A
C1370      H1379   1.083       .  S
C1371      C1372   1.417       .  A
C1371      S1375   1.806       .  S
C1372      C1373   1.408       .  A
C1373      C1374   1.406       .  A
C1373      H1380   1.084       .  S
C1374      S1376   1.802       .  S
S1375      H1378   1.406       .  S
S1376      H1377   1.407       .  S
C1381      C1382   1.408       .  A
C1381      C1386   1.412       .  A
C1382      C1383   1.399       .  A
C1382      H1391   1.084       .  S
C1383      C1384   1.411       .  A
C1383      S1387   1.809       .  S
C1384      C1385   1.405       .  A
C1385      C1386   1.401       .  A
C1385      H1392   1.083       .  S
C1386      S1388   1.803       .  S
S1387      H1390   1.401       .  S
S1388      H1389   1.408       .  S
C1393      C1394   1.409       .  A
C1393      C1398   1.425       .  A
C1394      C1395   1.395       .  A
C1394      H1403   1.075       .  S
C1395      C1396   1.404       .  A
C1395      S1399   1.808       .  S
C1396      C1397   1.391       .  A
C1397      C1398   1.391       .  A
C1397      H1404   1.083       .  S
C1398      S1400   1.814       .  S
S1399      H1402   1.407       .  S
S1400      H1401   1.407       .  S
C1405      C1406   1.397       .  A
C1405      C1410   1.417       .  A
C1406      C1407   1.387       .  A
C1406      H1415   1.085       .  S
C1407      C1408   1.417       .  A
C1407      S1411   1.804       .  S
C1408      C1409   1.406       .  A
C1409      C1410   1.410       .  A
C1409      H1416   1.084       .  S
C1410      S1412   1.804       .  S
S1411      H1414   1.401       .  S
S1412      H1413   1.399       .  S
C1417      C1418   1.418       .  A
C1417      C1422   1.424       .  A
C1418      C1419   1.401       .  A
C1418      H1427   1.076       .  S
C1419      C1420   1.404       .  A
C1419      S1423   1.806       .  S
C1420      C1421   1.402       .  A
C1421      C1422   1.409       .  A
C1421      H1428   1.083       .  S
C1422      S1424   1.811       .  S
S1423      H1426   1.407       .  S
S1424      H1425   1.407       .  S
C1429      C1430   1.404       .  A
C1429      C1434   1.404       .  A
C1430      C1431   1.404       .  A
C1430      H1439   1.084       .  S
C1431      C1432   1.414       .  A
C1431      S1435   1.802       .  S
C1432      C1433   1.406       .  A
C1433      C1434   1.392       .  A
C1433      H1440   1.082       .  S
C1434      S1436   1.808       .  S
S1435      H1438   1.406       .  S
S1436      H1437   1.405       .  S
C1441      C1442   1.399   1_556  A
C1441      C1446   1.411       .  A
C1442      C1443   1.398       .  A
C1442      H1451   1.083       .  S
C1443      C1444   1.427   1_554  A
C1443      S1447   1.815       .  S
C1444      C1445   1.406       .  A
C1445      C1446   1.396       .  A
C1445      H1452   1.077       .  S
C1446      S1448   1.799       .  S
S1447      H1450   1.406       .  S
S1448      H1449   1.408       .  S
C1453      C1454   1.400   1_556  A
C1453      C1458   1.417       .  A
C1454      C1455   1.392       .  A
C1454      H1463   1.085       .  S
C1455      C1456   1.419   1_554  A
C1455      S1459   1.807       .  S
C1456      C1457   1.403       .  A
C1457      C1458   1.406       .  A
C1457      H1464   1.084       .  S
C1458      S1460   1.798       .  S
S1459      H1462   1.405       .  S
S1460      H1461   1.404       .  S
C1465      C1466   1.406   1_556  A
C1465      C1470   1.417       .  A
C1466      C1467   1.411       .  A
C1466      H1475   1.080       .  S
C1467      C1468   1.426       .  A
C1467      S1471   1.811       .  S
C1468      C1469   1.411   1_554  A
C1469      C1470   1.407       .  A
C1469      H1476   1.073       .  S
C1470      S1472   1.809       .  S
S1471      H1474   1.407       .  S
S1472      H1473   1.407       .  S
C1477      C1478   1.410       .  A
C1477      C1482   1.415   1_556  A
C1478      C1479   1.399       .  A
C1478      H1487   1.084       .  S
C1479      C1480   1.407       .  A
C1479      S1483   1.805       .  S
C1480      C1481   1.401   1_556  A
C1481      C1482   1.404       .  A
C1481      H1488   1.083       .  S
C1482      S1484   1.802       .  S
S1483      H1486   1.405       .  S
S1484      H1485   1.408       .  S
C1489      C1490   1.412       .  A
C1489      C1494   1.426       .  A
C1490      C1491   1.400       .  A
C1490      H1499   1.073       .  S
C1491      C1492   1.417       .  A
C1491      S1495   1.801       .  S
C1492      C1493   1.407       .  A
C1493      C1494   1.413       .  A
C1493      H1500   1.082       .  S
C1494      S1496   1.810       .  S
S1495      H1498   1.403       .  S
S1496      H1497   1.406       .  S
C1501      C1502   1.390       .  A
C1501      C1506   1.417       .  A
C1502      C1503   1.383       .  A
C1502      H1511   1.084       .  S
C1503      C1504   1.436       .  A
C1503      S1507   1.820       .  S
C1504      C1505   1.413       .  A
C1505      C1506   1.421       .  A
C1505      H1512   1.082       .  S
C1506      S1508   1.802       .  S
S1507      H1510   1.408       .  S
S1508      H1509   1.407       .  S
C1513      C1514   1.405       .  A
C1513      C1518   1.414   1_556  A
C1514      C1515   1.415       .  A
C1514      H1523   1.082       .  S
C1515      C1516   1.427       .  A
C1515      S1519   1.809       .  S
C1516      C1517   1.407   1_556  A
C1517      C1518   1.390       .  A
C1517      H1524   1.071       .  S
C1518      S1520   1.798       .  S
S1519      H1522   1.407       .  S
S1520      H1521   1.406       .  S
C1525      C1526   1.399       .  A
C1525      C1530   1.414   1_554  A
C1526      C1527   1.403       .  A
C1526      H1535   1.083       .  S
C1527      C1528   1.413       .  A
C1527      S1531   1.806       .  S
C1528      C1529   1.399   1_554  A
C1529      C1530   1.403       .  A
C1529      H1536   1.083       .  S
C1530      S1532   1.808       .  S
S1531      H1534   1.407       .  S
S1532      H1533   1.407       .  S
C1537      C1538   1.408   1_554  A
C1537      C1542   1.423       .  A
C1538      C1539   1.398       .  A
C1538      H1547   1.071       .  S
C1539      C1540   1.416   1_556  A
C1539      S1543   1.814       .  S
C1540      C1541   1.404       .  A
C1541      C1542   1.404       .  A
C1541      H1548   1.082       .  S
C1542      S1544   1.812       .  S
S1543      H1546   1.406       .  S
S1544      H1545   1.407       .  S
C1549      C1550   1.409       .  A
C1549      C1554   1.405       .  A
C1550      C1551   1.399       .  A
C1550      H1559   1.081   1_554  S
C1551      C1552   1.414       .  A
C1551      S1555   1.806   1_554  S
C1552      C1553   1.417       .  A
C1553      C1554   1.403       .  A
C1553      H1560   1.083       .  S
C1554      S1556   1.798       .  S
S1555      H1558   1.406       .  S
S1556      H1557   1.405       .  S
C1561      C1562   1.416   1_545  A
C1561      C1566   1.428       .  A
C1562      C1563   1.402       .  A
C1562      H1571   1.082       .  S
C1563      C1564   1.412   1_565  A
C1563      S1567   1.804       .  S
C1564      C1565   1.405       .  A
C1565      C1566   1.400       .  A
C1565      H1572   1.082       .  S
C1566      S1568   1.812       .  S
S1567      H1570   1.408       .  S
S1568      H1569   1.407       .  S
C1573      C1574   1.404       .  A
C1573      C1578   1.418   1_545  A
C1574      C1575   1.405       .  A
C1574      H1583   1.082       .  S
C1575      C1576   1.422       .  A
C1575      S1579   1.812       .  S
C1576      C1577   1.408   1_545  A
C1577      C1578   1.394       .  A
C1577      H1584   1.071       .  S
C1578      S1580   1.815       .  S
S1579      H1582   1.406       .  S
S1580      H1581   1.407       .  S
C1585      C1586   1.407       .  A
C1585      C1590   1.418       .  A
C1586      C1587   1.388       .  A
C1586      H1595   1.083       .  S
C1587      C1588   1.408       .  A
C1587      S1591   1.800       .  S
C1588      C1589   1.403       .  A
C1589      C1590   1.402       .  A
C1589      H1596   1.082       .  S
C1590      S1592   1.805       .  S
S1591      H1594   1.408       .  S
S1592      H1593   1.406       .  S
C1597      C1598   1.407       .  A
C1597      C1602   1.415       .  A
C1598      C1599   1.399       .  A
C1598      H1607   1.083       .  S
C1599      C1600   1.410       .  A
C1599      S1603   1.805       .  S
C1600      C1601   1.405       .  A
C1601      C1602   1.405       .  A
C1601      H1608   1.084       .  S
C1602      S1604   1.802       .  S
S1603      H1606   1.403       .  S
S1604      H1605   1.406       .  S
C1609      C1610   1.405       .  A
C1609      C1614   1.418       .  A
C1610      C1611   1.398       .  A
C1610      H1619   1.084       .  S
C1611      C1612   1.409       .  A
C1611      S1615   1.804       .  S
C1612      C1613   1.400       .  A
C1613      C1614   1.398       .  A
C1613      H1620   1.084       .  S
C1614      S1616   1.806       .  S
S1615      H1618   1.406       .  S
S1616      H1617   1.406       .  S
C1621      C1622   1.403       .  A
C1621      C1626   1.410       .  A
C1622      C1623   1.411       .  A
C1622      H1631   1.083       .  S
C1623      C1624   1.426       .  A
C1623      S1627   1.810       .  S
C1624      C1625   1.407       .  A
C1625      C1626   1.392       .  A
C1625      H1632   1.072       .  S
C1626      S1628   1.809       .  S
S1627      H1630   1.407       .  S
S1628      H1629   1.407       .  S
C1633      C1634   1.405       .  A
C1633      C1638   1.413       .  A
C1634      C1635   1.397       .  A
C1634      H1643   1.084       .  S
C1635      C1636   1.427       .  A
C1635      S1639   1.805       .  S
C1636      C1637   1.413       .  A
C1637      C1638   1.402       .  A
C1637      H1644   1.082       .  S
C1638      S1640   1.803       .  S
S1639      H1642   1.406       .  S
S1640      H1641   1.408       .  S
C1645      C1646   1.409       .  A
C1645      C1650   1.421       .  A
C1646      C1647   1.406       .  A
C1646      H1655   1.082       .  S
C1647      C1648   1.418       .  A
C1647      S1651   1.804       .  S
C1648      C1649   1.408       .  A
C1649      C1650   1.408       .  A
C1649      H1656   1.082       .  S
C1650      S1652   1.811       .  S
S1651      H1654   1.406       .  S
S1652      H1653   1.406       .  S
C1657      C1658   1.399       .  A
C1657      C1662   1.408       .  A
C1658      C1659   1.403       .  A
C1658      H1667   1.083       .  S
C1659      C1660   1.420       .  A
C1659      S1663   1.810       .  S
C1660      C1661   1.405       .  A
C1661      C1662   1.395       .  A
C1661      H1668   1.083       .  S
C1662      S1664   1.807       .  S
S1663      H1666   1.407       .  S
S1664      H1665   1.405       .  S
C1669      C1670   1.405       .  A
C1669      C1674   1.415       .  A
C1670      C1671   1.406       .  A
C1670      H1679   1.083       .  S
C1671      C1672   1.422       .  A
C1671      S1675   1.804       .  S
C1672      C1673   1.404       .  A
C1673      C1674   1.394       .  A
C1673      H1680   1.084       .  S
C1674      S1676   1.799       .  S
S1675      H1678   1.407       .  S
S1676      H1677   1.408       .  S
C1681      C1682   1.409       .  A
C1681      C1686   1.412       .  A
C1682      C1683   1.403       .  A
C1682      H1691   1.084       .  S
C1683      C1684   1.412       .  A
C1683      S1687   1.808       .  S
C1684      C1685   1.404       .  A
C1685      C1686   1.400       .  A
C1685      H1692   1.084       .  S
C1686      S1688   1.803       .  S
S1687      H1690   1.402       .  S
S1688      H1689   1.406       .  S
C1693      C1694   1.402       .  A
C1693      C1698   1.409       .  A
C1694      C1695   1.395       .  A
C1694      H1703   1.085       .  S
C1695      C1696   1.421       .  A
C1695      S1699   1.799       .  S
C1696      C1697   1.413       .  A
C1697      C1698   1.390       .  A
C1697      H1704   1.084       .  S
C1698      S1700   1.804       .  S
S1699      H1702   1.408       .  S
S1700      H1701   1.407       .  S
C1705      C1706   1.398       .  A
C1705      C1710   1.415       .  A
C1706      C1707   1.396       .  A
C1706      H1715   1.083       .  S
C1707      C1708   1.418       .  A
C1707      S1711   1.804       .  S
C1708      C1709   1.404       .  A
C1709      C1710   1.405       .  A
C1709      H1716   1.084       .  S
C1710      S1712   1.807       .  S
S1711      H1714   1.406       .  S
S1712      H1713   1.403       .  S
C1717      C1718   1.399       .  A
C1717      C1722   1.415       .  A
C1718      C1719   1.393       .  A
C1718      H1727   1.083       .  S
C1719      C1720   1.413       .  A
C1719      S1723   1.807       .  S
C1720      C1721   1.406       .  A
C1721      C1722   1.414       .  A
C1721      H1728   1.083       .  S
C1722      S1724   1.804       .  S
S1723      H1726   1.406       .  S
S1724      H1725   1.406       .  S
C1729      C1730   1.409   1_545  A
C1729      C1734   1.422       .  A
C1730      C1731   1.402       .  A
C1730      H1739   1.083       .  S
C1731      C1732   1.422   1_565  A
C1731      S1735   1.805       .  S
C1732      C1733   1.406       .  A
C1733      C1734   1.397       .  A
C1733      H1740   1.081       .  S
C1734      S1736   1.812       .  S
S1735      H1738   1.406       .  S
S1736      H1737   1.407       .  S
C1741      C1742   1.403       .  A
C1741      C1746   1.417   1_545  A
C1742      C1743   1.409       .  A
C1742      H1751   1.082       .  S
C1743      C1744   1.429       .  A
C1743      S1747   1.812       .  S
C1744      C1745   1.407   1_545  A
C1745      C1746   1.401       .  A
C1745      H1752   1.077       .  S
C1746      S1748   1.794       .  S
S1747      H1750   1.406       .  S
S1748      H1749   1.405       .  S
C1753      C1754   1.399       .  A
C1753      C1758   1.409       .  A
C1754      C1755   1.406       .  A
C1754      H1763   1.083       .  S
C1755      C1756   1.426       .  A
C1755      S1759   1.809       .  S
C1756      C1757   1.411       .  A
C1757      C1758   1.401       .  A
C1757      H1764   1.082       .  S
C1758      S1760   1.805       .  S
S1759      H1762   1.407       .  S
S1760      H1761   1.404       .  S
C1765      C1766   1.412       .  A
C1765      C1770   1.420       .  A
C1766      C1767   1.393       .  A
C1766      H1775   1.083       .  S
C1767      C1768   1.410       .  A
C1767      S1771   1.808       .  S
C1768      C1769   1.401       .  A
C1769      C1770   1.398       .  A
C1769      H1776   1.084       .  S
C1770      S1772   1.801       .  S
S1771      H1774   1.404       .  S
S1772      H1773   1.408       .  S
C1777      C1778   1.406       .  A
C1777      C1782   1.423       .  A
C1778      C1779   1.398       .  A
C1778      H1787   1.083       .  S
C1779      C1780   1.408       .  A
C1779      S1783   1.799       .  S
C1780      C1781   1.397       .  A
C1781      C1782   1.403       .  A
C1781      H1788   1.083       .  S
C1782      S1784   1.809       .  S
S1783      H1786   1.406       .  S
S1784      H1785   1.407       .  S
C1789      C1790   1.409       .  A
C1789      C1794   1.413       .  A
C1790      C1791   1.405       .  A
C1790      H1799   1.082       .  S
C1791      C1792   1.409       .  A
C1791      S1795   1.803       .  S
C1792      C1793   1.404       .  A
C1793      C1794   1.399       .  A
C1793      H1800   1.084       .  S
C1794      S1796   1.804       .  S
S1795      H1798   1.406       .  S
S1796      H1797   1.406       .  S
C1801      C1802   1.404       .  A
C1801      C1806   1.408       .  A
C1802      C1803   1.406       .  A
C1802      H1811   1.083       .  S
C1803      C1804   1.423       .  A
C1803      S1807   1.802       .  S
C1804      C1805   1.418       .  A
C1805      C1806   1.403       .  A
C1805      H1812   1.083       .  S
C1806      S1808   1.804       .  S
S1807      H1810   1.406       .  S
S1808      H1809   1.407       .  S
C1813      C1814   1.416       .  A
C1813      C1818   1.425       .  A
C1814      C1815   1.394       .  A
C1814      H1823   1.072       .  S
C1815      C1816   1.403       .  A
C1815      S1819   1.810       .  S
C1816      C1817   1.398       .  A
C1817      C1818   1.402       .  A
C1817      H1824   1.084       .  S
C1818      S1820   1.812       .  S
S1819      H1822   1.403       .  S
S1820      H1821   1.407       .  S
C1825      C1826   1.405       .  A
C1825      C1830   1.421       .  A
C1826      C1827   1.404       .  A
C1826      H1835   1.083       .  S
C1827      C1828   1.423       .  A
C1827      S1831   1.802       .  S
C1828      C1829   1.408       .  A
C1829      C1830   1.401       .  A
C1829      H1836   1.083       .  S
C1830      S1832   1.803       .  S
S1831      H1834   1.408       .  S
S1832      H1833   1.401       .  S
C1837      C1838   1.406       .  A
C1837      C1842   1.410       .  A
C1838      C1839   1.400       .  A
C1838      H1847   1.084       .  S
C1839      C1840   1.412       .  A
C1839      S1843   1.805       .  S
C1840      C1841   1.405       .  A
C1841      C1842   1.395       .  A
C1841      H1848   1.085       .  S
C1842      S1844   1.805       .  S
S1843      H1846   1.403       .  S
S1844      H1845   1.407       .  S
C1849      C1850   1.406       .  A
C1849      C1854   1.423       .  A
C1850      C1851   1.404       .  A
C1850      H1859   1.082       .  S
C1851      C1852   1.411       .  A
C1851      S1855   1.802       .  S
C1852      C1853   1.399       .  A
C1853      C1854   1.402       .  A
C1853      H1860   1.084       .  S
C1854      S1856   1.804       .  S
S1855      H1858   1.407       .  S
S1856      H1857   1.405       .  S
C1861      C1862   1.399       .  A
C1861      C1866   1.409       .  A
C1862      C1863   1.401       .  A
C1862      H1871   1.083       .  S
C1863      C1864   1.417       .  A
C1863      S1867   1.809       .  S
C1864      C1865   1.401       .  A
C1865      C1866   1.396       .  A
C1865      H1872   1.078       .  S
C1866      S1868   1.805       .  S
S1867      H1870   1.407       .  S
S1868      H1869   1.406       .  S
