geometry optimzed in LAMMPS
_audit_creation_date              2020-11-30 
_audit_creation_method            'lammps2cif' 
_symmetry_space_group_name_H-M    'P1' 
_symmetry_Int_Tables_number       1 
_symmetry_cell_setting            triclinic 
loop_ 
_symmetry_equiv_pos_as_xyz 
  x,y,z 
_cell_length_a                    48.00358303929951 
_cell_length_b                    46.24439090844479 
_cell_length_c                    41.2455155927758 
_cell_angle_alpha                 89.96782730968533 
_cell_angle_beta                  90.4874226232147 
_cell_angle_gamma                 88.54514850180941 
loop_ 
_atom_site_label 
_atom_site_type_symbol 
_atom_site_fract_x 
_atom_site_fract_y 
_atom_site_fract_z 
_atom_site_charge 
O1          O  0.09531296  0.17829473  0.03011448    -0.81970
O2          O  0.00815177  0.11529675  0.47105362    -0.81990
O3          O  0.04184338  0.16914218  0.43708197    -0.82000
O4          O  0.02609275  0.11383010  0.06761312    -0.81940
O5          O  0.03832424  0.12281863  0.42289740    -0.82070
O6          O  0.04712121  0.15503770  0.05797942    -0.81990
O7          O  0.01116012  0.14184594  0.01348170    -0.81970
O8          O  0.07026711  0.19557758  0.48916174    -0.82010
C9          C  0.08753931  0.19933786  0.51211659     1.07720
C10         C  0.49706069  0.13247464  0.49080100     1.07600
C11         C  0.03041768  0.14942329  0.42035203     1.07740
C12         C  0.02904318  0.14049444  0.07411302     1.07620
O13         O  0.09778635  0.13043812  0.07096429    -0.81970
O14         O  0.08674798  0.09285792  0.45195713    -0.82050
O15         O  0.11850923  0.16002957  0.47561780    -0.81980
O16         O  0.02709892  0.07813048  0.00938957    -0.81960
O17         O  0.03477804  0.06744334  0.45655765    -0.82020
O18         O  0.11445690  0.12312992  0.00894459    -0.81980
O19         O  0.07684240  0.09400379  0.04666918    -0.81940
O20         O  0.09051113  0.13458770  0.42583126    -0.82010
Co21       Co  0.08053713  0.13836676  0.03078363     1.51530
Co22       Co  0.04848598  0.10404902  0.46554505     1.51690
Co23       Co  0.07905780  0.16416660  0.45833871     1.51570
Co24       Co  0.04369017  0.11814010  0.02676362     1.51470
O25         O  0.06185849  0.13621581  0.98850241    -1.43910
C26         C  0.09330039  0.10356567  0.06912233     1.07650
C27         C  0.09758468  0.10816542  0.43003560     1.07740
C28         C  0.12949723  0.13945748  0.99226492     1.07670
C29         C  0.02462406  0.06084878  0.98416123     1.07650
O30         O  0.28989181  0.06344727  0.04170741    -0.81970
O31         O  0.36602663  0.12386988  0.49509097    -0.81990
O32         O  0.33646829  0.09280317  0.45382683    -0.82000
O33         O  0.34614727  0.13102442  0.07336235    -0.81940
O34         O  0.35374664  0.13195438  0.43186656    -0.82070
O35         O  0.34095854  0.09034481  0.04575217    -0.81990
O36         O  0.36962148  0.16226170  0.02512242    -0.81970
O37         O  0.28515868  0.07219469  0.48798607    -0.82010
C38         C  0.28203365  0.05541666  0.01344713     1.07720
C39         C  0.38082116  0.14205259  0.50901854     1.07600
C40         C  0.35255562  0.10466623  0.43249258     1.07740
C41         C  0.35384911  0.10505451  0.06696404     1.07620
O42         O  0.29321207  0.11759816  0.07762371    -0.81970
O43         O  0.30085696  0.15107055  0.44043711    -0.82050
O44         O  0.26305442  0.13193857  0.48030547    -0.81980
O45         O  0.31999202  0.19456403  0.01430561    -0.81960
O46         O  0.34460649  0.17931102  0.47232220    -0.82020
O47         O  0.26063112  0.11082608  0.02698127    -0.81980
O48         O  0.29500180  0.16440397  0.06545198    -0.81940
O49         O  0.28589528  0.10726178  0.42850723    -0.82010
Co50       Co  0.30163998  0.10103049  0.03340966     1.51530
Co51       Co  0.33334075  0.13769192  0.47047934     1.51690
Co52       Co  0.29956998  0.11307301  0.47129687     1.51570
Co53       Co  0.33119287  0.16193945  0.04298531     1.51470
O54         O  0.31310389  0.13460509  0.01121951    -1.43910
C55         C  0.28590789  0.14403150  0.08270852     1.07650
C56         C  0.28726445  0.13403445  0.42150537     1.07740
C57         C  0.24889395  0.12457640  0.00401559     1.07670
C58         C  0.33581216  0.19981322  0.49052619     1.07650
O59         O  0.15198010  0.31734469  0.03127371    -0.81970
O60         O  0.23760711  0.38949689  0.46399046    -0.81990
O61         O  0.20123354  0.33215601  0.43688749    -0.82000
O62         O  0.21921310  0.37614277  0.06550447    -0.81940
O63         O  0.22054207  0.37636433  0.44078179    -0.82070
O64         O  0.20199143  0.33424121  0.05516159    -0.81990
O65         O  0.24053428  0.38115464  0.01504281    -0.81970
O66         O  0.17360826  0.30229031  0.48711086    -0.82010
C67         C  0.15788722  0.29750586  0.51103833     1.07720
C68         C  0.25241085  0.38300302  0.48861531     1.07600
C69         C  0.21971129  0.35018366  0.42877996     1.07740
C70         C  0.21947340  0.34915598  0.07032135     1.07620
O71         O  0.15543845  0.36260910  0.07581366    -0.81970
O72         O  0.17523494  0.41007254  0.43974816    -0.82050
O73         O  0.12759692  0.34202443  0.48070923    -0.81980
O74         O  0.21751479  0.43262980  0.03149720    -0.81960
O75         O  0.21375721  0.43745518  0.47768136    -0.82020
O76         O  0.13589660  0.37585059  0.01605953    -0.81980
O77         O  0.16715504  0.40451460  0.05260052    -0.81940
O78         O  0.15342649  0.36921492  0.43230212    -0.82010
Co79       Co  0.16967364  0.35561963  0.03494355     1.51530
Co80       Co  0.19847386  0.39776143  0.47781428     1.51690
Co81       Co  0.16589778  0.33773441  0.46143617     1.51570
Co82       Co  0.20234647  0.39321007  0.02531652     1.51470
O83         O  0.18821644  0.35941872  0.49587612    -1.43910
C84         C  0.15609897  0.39006155  0.07628500     1.07650
C85         C  0.15699550  0.39536549  0.42552973     1.07740
C86         C  0.11886268  0.36258071  0.49851211     1.07670
C87         C  0.22155216  0.44753647  0.50543787     1.07650
O88         O  0.44455724  0.45069693  0.01346681    -0.81970
O89         O  0.38078379  0.36793502  0.48040116    -0.81990
O90         O  0.41970484  0.41564934  0.44043025    -0.82000
O91         O  0.39785407  0.37380880  0.05606885    -0.81940
O92         O  0.40504903  0.37244764  0.43138121    -0.82070
O93         O  0.41506467  0.41872974  0.06211051    -0.81990
O94         O  0.38166740  0.36167877  0.03179092    -0.81970
O95         O  0.46765433  0.43579811  0.47000737    -0.82010
C96         C  0.46061013  0.45589709  0.48979012     1.07720
C97         C  0.36780880  0.36711390  0.00628772     1.07600
C98         C  0.40282801  0.39923981  0.42607560     1.07740
C99         C  0.39773082  0.39929492  0.06970783     1.07620
O100        O  0.46301099  0.38229083  0.06743817    -0.81970
O101        O  0.45774289  0.34673622  0.44873772    -0.82050
O102        O  0.48435821  0.37732637  0.48736511    -0.81980
O103        O  0.40608801  0.31452648  0.01886922    -0.81960
O104        O  0.40649593  0.31754231  0.46492201    -0.82020
O105        O  0.49080176  0.41188948  0.02195018    -0.81980
O106        O  0.44216408  0.34120854  0.05820513    -0.81940
O107        O  0.47038369  0.38835511  0.42542716    -0.82010
Co108      Co  0.45141859  0.41449069  0.03865381     1.51530
Co109      Co  0.42021987  0.35720324  0.47289265     1.51690
Co110      Co  0.45185658  0.39630698  0.46448402     1.51570
Co111      Co  0.42095446  0.35401454  0.01915280     1.51470
O112        O  0.43106567  0.39275523  0.00197604    -1.43910
C113        C  0.45940374  0.35599058  0.07375555     1.07650
C114        C  0.47186779  0.36079834  0.42695466     1.07740
C115        C  0.50055609  0.39116048  0.00521753     1.07670
C116        C  0.39991119  0.30388267  0.99094630     1.07650
O117        O  0.20578198  0.11569102  0.17563989    -0.81970
O118        O  0.20070807  0.14916626  0.30168670    -0.81990
O119        O  0.14601294  0.16738683  0.21730660    -0.82000
O120        O  0.25018142  0.07176589  0.25910730    -0.81940
O121        O  0.16365022  0.17850541  0.26488914    -0.82070
O122        O  0.24598500  0.09859274  0.21660743    -0.81990
O123        O  0.23506141  0.11863078  0.29314726    -0.81970
O124        O  0.20171148  0.15099938  0.20978813    -0.82010
C125        C  0.21084558  0.14120155  0.18316852     1.07720
C126        C  0.22483315  0.13967741  0.30840995     1.07600
C127        C  0.14871397  0.18591216  0.24029561     1.07740
C128        C  0.26025244  0.08972687  0.24031644     1.07620
O129        O  0.21708728  0.04360446  0.22467961    -0.81970
O130        O  0.14057108  0.13044792  0.28148401    -0.82050
O131        O  0.15636364  0.11309970  0.18375083    -0.81980
O132        O  0.18867471  0.08652538  0.31840366    -0.81960
O133        O  0.16080146  0.12372552  0.30356964    -0.82020
O134        O  0.17304118  0.06817016  0.18991521    -0.81980
O135        O  0.20224398  0.04318993  0.27536783    -0.81940
O136        O  0.13283444  0.11103046  0.23610202    -0.82010
Co137      Co  0.20931084  0.08227246  0.20483222     1.51530
Co138      Co  0.17903591  0.13879903  0.26219906     1.51690
Co139      Co  0.16774641  0.13060149  0.22627320     1.51570
Co140      Co  0.21665318  0.08175504  0.28418835     1.51470
O141        O  0.19152518  0.09804523  0.24662550    -1.43910
C142        C  0.21268952  0.03027860  0.25106111     1.07650
C143        C  0.12328153  0.11823782  0.26272802     1.07740
C144        C  0.15635386  0.08623679  0.17646340     1.07670
C145        C  0.16807250  0.10316978  0.32333070     1.07650
O146        O  0.41514866  0.09329089  0.19271759    -0.81970
O147        O  0.44620304  0.08457612  0.32106888    -0.81990
O148        O  0.47965675  0.07861252  0.22390920    -0.82000
O149        O  0.38083260  0.14965969  0.27264825    -0.81940
O150        O  0.44466234  0.06718271  0.25601849    -0.82070
O151        O  0.38201568  0.11448126  0.23740818    -0.81990
O152        O  0.40990765  0.11067770  0.30404438    -0.81970
O153        O  0.45400445  0.10428388  0.17050747    -0.82010
C154        C  0.43048263  0.09204106  0.16851827     1.07720
C155        C  0.42103169  0.09292464  0.32478103     1.07600
C156        C  0.46610927  0.05979423  0.23961459     1.07740
C157        C  0.36895284  0.12922704  0.25801585     1.07620
O158        O  0.39530718  0.17334826  0.21986464    -0.81970
O159        O  0.98940312  0.09817426  0.28043230    -0.82050
O160        O  0.46690060  0.16075494  0.19960518    -0.81980
O161        O  0.42114383  0.16594789  0.32014515    -0.81960
O162        O  0.45893154  0.14014766  0.30618483    -0.82020
O163        O  0.42959925  0.15214008  0.17130948    -0.81980
O164        O  0.42676511  0.18483254  0.25667852    -0.81940
O165        O  0.99596115  0.13474781  0.24843797    -0.82010
Co166      Co  0.40675162  0.13268513  0.20699986     1.51530
Co167      Co  0.44797334  0.10406224  0.27975548     1.51690
Co168      Co  0.47267157  0.12040251  0.21224113     1.51570
Co169      Co  0.42260076  0.14716676  0.27866293     1.51470
O170        O  0.43793487  0.12625544  0.23927728    -1.43910
C171        C  0.40639040  0.19212089  0.23821464     1.07650
C172        C  0.00548967  0.11645125  0.26856216     1.07740
C173        C  0.45362916  0.16339416  0.17348706     1.07670
C174        C  0.44643551  0.15802246  0.32537645     1.07650
O175        O  0.02834534  0.38139505  0.18331569    -0.81970
O176        O  0.06415605  0.33998464  0.31415144    -0.81990
O177        O  0.08184979  0.31074824  0.21750750    -0.82000
O178        O  0.49425459  0.38083737  0.25993600    -0.81940
O179        O  0.09572653  0.31407539  0.26898968    -0.82070
O180        O  0.49841999  0.41519263  0.22398859    -0.81990
O181        O  0.02377148  0.34908809  0.29657976    -0.81970
O182        O  0.02889617  0.34067942  0.21148623    -0.82010
C183        C  0.02149362  0.35509691  0.18643390     1.07720
C184        C  0.03855820  0.33950469  0.31908851     1.07600
C185        C  0.09480295  0.29957579  0.24226878     1.07740
C186        C  0.48488391  0.39499856  0.23627506     1.07620
O187        O  0.04669381  0.44535988  0.24290964    -0.81970
O188        O  0.11007509  0.37041273  0.27826689    -0.82050
O189        O  0.07796675  0.36714680  0.18361207    -0.81980
O190        O  0.05530763  0.40051226  0.32105314    -0.81960
O191        O  0.09324812  0.37732483  0.30093362    -0.82020
O192        O  0.07766960  0.41282276  0.19930762    -0.81980
O193        O  0.01768502  0.43382045  0.28178375    -0.81940
O194        O  0.10800709  0.35937349  0.22859518    -0.82010
Co195      Co  0.03920623  0.41232804  0.21461337     1.51530
Co196      Co  0.07412073  0.35128166  0.26838025     1.51690
Co197      Co  0.06702664  0.35033838  0.22673648     1.51570
Co198      Co  0.02453378  0.39092654  0.28840749     1.51470
O199        O  0.05231955  0.38623959  0.25201594    -1.43910
C200        C  0.02784899  0.45255864  0.26285197     1.07650
C201        C  0.12250786  0.36779794  0.25173670     1.07740
C202        C  0.08610839  0.39307877  0.18045986     1.07670
C203        C  0.08165436  0.39479655  0.32161087     1.07650
O204        O  0.33171649  0.37887904  0.19159693    -0.81970
O205        O  0.29945582  0.38724820  0.32897737    -0.81990
O206        O  0.30111759  0.42195404  0.24444777    -0.82000
O207        O  0.36542597  0.37608317  0.25453146    -0.81940
O208        O  0.26859708  0.40991409  0.27973335    -0.82070
O209        O  0.36288169  0.34050837  0.21996136    -0.81990
O210        O  0.33589814  0.39818460  0.30165037    -0.81970
O211        O  0.29471132  0.40617250  0.17925695    -0.82010
C212        C  0.31959783  0.39791411  0.17318871     1.07720
C213        C  0.32243738  0.40059388  0.32719691     1.07600
C214        C  0.28130180  0.42883484  0.26355736     1.07740
C215        C  0.37564721  0.36178136  0.23151274     1.07620
O216        O  0.31991341  0.30488305  0.24173625    -0.81970
O217        O  0.25238860  0.35343750  0.25725091    -0.82050
O218        O  0.28342725  0.34995608  0.19355204    -0.81980
O219        O  0.32348329  0.34006621  0.32797085    -0.81960
O220        O  0.28564035  0.32893730  0.30277313    -0.82020
O221        O  0.32012714  0.32367845  0.17732851    -0.81980
O222        O  0.35360597  0.31754527  0.27551103    -0.81940
O223        O  0.25453494  0.39060497  0.22495111    -0.82010
Co224      Co  0.32125541  0.34244741  0.21875920     1.51530
Co225      Co  0.27763451  0.36887979  0.29051154     1.51690
Co226      Co  0.29602153  0.38571691  0.22021019     1.51570
Co227      Co  0.34325383  0.35840368  0.28834895     1.51470
O228        O  0.30956278  0.36349796  0.25941659    -1.43910
C229        C  0.34150781  0.29830278  0.25871034     1.07650
C230        C  0.24034591  0.37165286  0.23889278     1.07740
C231        C  0.29493183  0.33233066  0.17313986     1.07670
C232        C  0.29950412  0.32846265  0.32843305     1.07650
C233        C  0.43666417  0.40798169  0.21936712    -0.15180
C234        C  0.45775575  0.38706202  0.22399571     0.06970
C235        C  0.45147237  0.35759545  0.22394450    -0.15180
C236        C  0.42418144  0.34892251  0.22068908    -0.15180
C237        C  0.40283189  0.36985235  0.22016972     0.06970
C238        C  0.40909601  0.39937730  0.21849595    -0.15180
H239        H  0.44117397  0.43080151  0.22047347     0.10950
H240        H  0.46754031  0.34135878  0.22919726     0.10950
H241        H  0.41962414  0.32619644  0.22314038     0.10950
H242        H  0.39269442  0.41578718  0.21993302     0.10950
C243        C  0.16635807  0.39597700  0.25380093    -0.15180
C244        C  0.15253672  0.37018919  0.24788272     0.06970
C245        C  0.16732351  0.34599884  0.23586185    -0.15180
C246        C  0.19592703  0.34699664  0.23125101    -0.15180
C247        C  0.20996196  0.37250903  0.23759924     0.06970
C248        C  0.19506562  0.39721277  0.24834895    -0.15180
H249        H  0.15502184  0.41497315  0.26236958     0.10950
H250        H  0.15675506  0.32603859  0.23081152     0.10950
H251        H  0.20723529  0.32769498  0.22344228     0.10950
H252        H  0.20585629  0.41691548  0.25396191     0.10950
C253        C  0.47281025  0.01279810  0.26988554    -0.15180
C254        C  0.47965351  0.03079357  0.24380804     0.06970
C255        C  0.00335713  0.02349126  0.22538465    -0.15180
C256        C  0.01996756  0.99917069  0.23297974    -0.15180
C257        C  0.01325793  0.48112756  0.25904464     0.06970
C258        C  0.48937843  0.48819908  0.27735777    -0.15180
H259        H  0.45511517  0.01813331  0.28505674     0.10950
H260        H  0.00952846  0.03701462  0.20537006     0.10950
H261        H  0.03776693  0.99416069  0.21784442     0.10950
H262        H  0.48323468  0.47447864  0.29719622     0.10950
C263        C  0.39528208  0.23724996  0.27026451    -0.15180
C264        C  0.39147517  0.22059058  0.24215963     0.06970
C265        C  0.36985959  0.22893167  0.22046108    -0.15180
C266        C  0.35255727  0.25319153  0.22667965    -0.15180
C267        C  0.35635248  0.26981902  0.25479878     0.06970
C268        C  0.37800648  0.26152738  0.27645473    -0.15180
H269        H  0.41119535  0.23113291  0.28791970     0.10950
H270        H  0.36605634  0.21643246  0.19875812     0.10950
H271        H  0.33666683  0.25935642  0.20901606     0.10950
H272        H  0.38182044  0.27406276  0.29813329     0.10950
C273        C  0.23875793  0.48871991  0.22735559    -0.15180
C274        C  0.22708567  0.50202384  0.25492609     0.06970
C275        C  0.23534458  0.49212226  0.28583711    -0.15180
C276        C  0.25509030  0.46954967  0.28895123    -0.15180
C277        C  0.26728591  0.45707765  0.26128726     0.06970
C278        C  0.25893631  0.46680342  0.23052462    -0.15180
H279        H  0.23297011  0.49594626  0.20318255     0.10950
H280        H  0.22723980  0.00235591  0.30752262     0.10950
H281        H  0.26051064  0.46141327  0.31288466     0.10950
H282        H  0.26697716  0.45644264  0.20886970     0.10950
C283        C  0.11727634  0.22407934  0.21393436    -0.15180
C284        C  0.13512081  0.21511787  0.23944098     0.06970
C285        C  0.13989096  0.23439634  0.26513494    -0.15180
C286        C  0.12694079  0.26171142  0.26567879    -0.15180
C287        C  0.10886573  0.27068121  0.24049562     0.06970
C288        C  0.10430215  0.25168899  0.21442092    -0.15180
H289        H  0.11319930  0.20972750  0.19382104     0.10950
H290        H  0.15359924  0.22834105  0.28513538     0.10950
H291        H  0.13111682  0.27583054  0.28598888     0.10950
H292        H  0.09044801  0.25801186  0.19466394     0.10950
C293        C  0.30846970  0.08200667  0.25948606    -0.15180
C294        C  0.28761914  0.10096409  0.24777084     0.06970
C295        C  0.29240237  0.13073896  0.24621621    -0.15180
C296        C  0.31872401  0.14117282  0.25380666    -0.15180
C297        C  0.34016576  0.12173501  0.26305539     0.06970
C298        C  0.33467275  0.09227409  0.26665739    -0.15180
H299        H  0.30484646  0.05905451  0.26160976     0.10950
H300        H  0.27580107  0.14577681  0.23938689     0.10950
H301        H  0.32284496  0.16387620  0.25021142     0.10950
H302        H  0.35130650  0.07682749  0.27250220     0.10950
C303        C  0.07903353  0.09301963  0.25326223    -0.15180
C304        C  0.09389935  0.11377230  0.27059613     0.06970
C305        C  0.07949151  0.13308811  0.29117555    -0.15180
C306        C  0.05032214  0.13316544  0.29219534    -0.15180
C307        C  0.03559310  0.11341897  0.27332358     0.06970
C308        C  0.05008981  0.09272377  0.25482138    -0.15180
H309        H  0.08970734  0.07796438  0.23721863     0.10950
H310        H  0.09059545  0.14939641  0.30453905     0.10950
H311        H  0.03926575  0.14936498  0.30641901     0.10950
H312        H  0.03890681  0.07751798  0.23993398     0.10950
C313        C  0.01970151  0.35395786  0.40514150    -0.15180
C314        C  0.49163638  0.34591514  0.40506031     0.06970
C315        C  0.48152194  0.32960935  0.37911411    -0.15180
C316        C  0.49833208  0.32424666  0.35205587    -0.15180
C317        C  0.02569998  0.33447463  0.35095697     0.06970
C318        C  0.03683434  0.34760169  0.37862949    -0.15180
H319        H  0.02770973  0.36726992  0.42447950     0.10950
H320        H  0.45981682  0.32374665  0.37823260     0.10950
H321        H  0.48915546  0.31440161  0.33081296     0.10950
H322        H  0.05768502  0.35594675  0.37825352     0.10950
C323        C  0.00549227  0.34947015  0.09916056    -0.15180
C324        C  0.47705738  0.34340955  0.09979066     0.06970
C325        C  0.46570240  0.33214212  0.12828425    -0.14940
C326        C  0.48186144  0.33089392  0.15694709    -0.15180
C327        C  0.00890811  0.34187764  0.15728512     0.06970
C328        C  0.02124795  0.34866516  0.12758295    -0.15180
H329        H  0.01478553  0.35786951  0.07733734     0.10950
H330        H  0.44383216  0.32701510  0.12918697     0.10950
H331        H  0.47240215  0.32374170  0.17897476     0.10950
H332        H  0.04226525  0.35669198  0.12695431     0.10950
C333        C  0.35244281  0.40089510  0.41085063    -0.15180
C334        C  0.37974296  0.40979773  0.40465007     0.06970
C335        C  0.38500485  0.42339670  0.37511843    -0.15180
C336        C  0.36431435  0.42445340  0.35081120    -0.15180
C337        C  0.33794142  0.41213355  0.35575648     0.06970
C338        C  0.33140889  0.40330207  0.38713744    -0.15180
H339        H  0.34788603  0.38996666  0.43318366     0.10950
H340        H  0.40579913  0.43039101  0.36959590     0.10950
H341        H  0.37000230  0.43213737  0.32702119     0.10950
H342        H  0.31093857  0.39545629  0.39234902     0.10950
C343        C  0.34782901  0.39781787  0.08877038    -0.15180
C344        C  0.37559831  0.40592551  0.09417153     0.06970
C345        C  0.38249378  0.41749726  0.12458946    -0.15180
C346        C  0.36283500  0.41825547  0.14972679    -0.15180
C347        C  0.33570123  0.40812514  0.14492605     0.06970
C348        C  0.32802240  0.39934968  0.11365931    -0.15180
H349        H  0.34159339  0.38913744  0.06573650     0.10950
H350        H  0.40362353  0.42395338  0.12966762     0.10950
H351        H  0.36922873  0.42525102  0.17350747     0.10950
H352        H  0.30738094  0.39126381  0.10918151     0.10950
C353        C  0.25584538  0.31425247  0.35675227    -0.15180
C354        C  0.28314528  0.32491884  0.35885709     0.06970
C355        C  0.29039870  0.34008785  0.38692246    -0.15180
C356        C  0.26990788  0.34859284  0.40942686    -0.15180
C357        C  0.24205259  0.34007258  0.40590160     0.06970
C358        C  0.23572285  0.32142161  0.38015626    -0.15180
H359        H  0.24938056  0.30220968  0.33559918     0.10950
H360        H  0.31145818  0.34734842  0.39003843     0.10950
H361        H  0.27590011  0.36240696  0.42899607     0.10950
H362        H  0.21469047  0.31390455  0.37690246     0.10950
C363        C  0.23058590  0.32469105  0.12289534    -0.15180
C364        C  0.23972982  0.33611154  0.09349290     0.06970
C365        C  0.26842463  0.33937912  0.08873808    -0.15180
C366        C  0.28758106  0.33303098  0.11372813    -0.15180
C367        C  0.27812827  0.32487347  0.14438821     0.06970
C368        C  0.24960493  0.31953345  0.14833746    -0.15180
H369        H  0.20852003  0.32239640  0.12721309     0.10950
H370        H  0.27583482  0.34863550  0.06645223     0.10950
H371        H  0.30932680  0.33781684  0.11024547     0.10950
H372        H  0.24172682  0.31388207  0.17198109     0.10950
C373        C  0.12895756  0.40768212  0.34216106    -0.15180
C374        C  0.10008025  0.40596171  0.34772242     0.06970
C375        C  0.09049725  0.40875903  0.37964559    -0.15180
C376        C  0.10960268  0.40914826  0.40560442    -0.15180
C377        C  0.13851561  0.40763701  0.40000146     0.06970
C378        C  0.14799062  0.40850018  0.36804604    -0.15180
H379        H  0.13703852  0.40590840  0.31784586     0.10950
H380        H  0.06847047  0.40756038  0.38478291     0.10950
H381        H  0.10182584  0.40784423  0.43013024     0.10950
H382        H  0.17009719  0.40667980  0.36308741     0.10950
C383        C  0.15244352  0.39468687  0.13440556    -0.15180
C384        C  0.14265508  0.40382239  0.10383609     0.06970
C385        C  0.11526912  0.41459787  0.10035243    -0.15180
C386        C  0.09687041  0.41273137  0.12629091    -0.15180
C387        C  0.10599630  0.40006503  0.15549856     0.06970
C388        C  0.13407833  0.39247349  0.16005410    -0.15180
H389        H  0.17344239  0.38578292  0.13729076     0.10950
H390        H  0.10735918  0.42135842  0.07688473     0.10950
H391        H  0.07515546  0.41902998  0.12281379     0.10950
H392        H  0.14140675  0.38307882  0.18264834     0.10950
C393        C  0.29256679  0.35180913  0.00213457    -0.15180
C394        C  0.28209719  0.37763373  0.48837490     0.06970
C395        C  0.29960470  0.40077855  0.48308827    -0.15180
C396        C  0.32760743  0.39808368  0.49165815    -0.15180
C397        C  0.33807787  0.37220712  0.00524400     0.06970
C398        C  0.32058330  0.34906347  0.01053197    -0.15180
H399        H  0.27883894  0.33412881  0.00713465     0.10950
H400        H  0.29139261  0.42117449  0.47365700     0.10950
H401        H  0.34130434  0.41584803  0.48694683     0.10950
H402        H  0.32875191  0.32873577  0.02018383     0.10950
C403        C  0.07917792  0.39589229  0.01502389    -0.15180
C404        C  0.08862202  0.37008915  0.50016700     0.06970
C405        C  0.06878417  0.35108249  0.98783988    -0.15180
C406        C  0.04027946  0.35767643  0.99035469    -0.15180
C407        C  0.03081745  0.38357160  0.00498273     0.06970
C408        C  0.05060102  0.40251803  0.01755243    -0.15180
H409        H  0.09397211  0.41118084  0.52420528     0.10950
H410        H  0.07531128  0.33094244  0.47646420     0.10950
H411        H  0.02559122  0.34250133  0.98057278     0.10950
H412        H  0.04402588  0.42273005  0.02869323     0.10950
C413        C  0.28547344  0.14699194  0.36369264    -0.15180
C414        C  0.27194327  0.14534130  0.39347164     0.06970
C415        C  0.24293921  0.14928152  0.39499690    -0.15180
C416        C  0.22727043  0.15218663  0.36644795    -0.15180
C417        C  0.24056726  0.15020581  0.33635777     0.06970
C418        C  0.26981892  0.14933830  0.33517875    -0.15180
H419        H  0.30787682  0.14377902  0.36230556     0.10950
H420        H  0.23231675  0.14779181  0.41797570     0.10950
H421        H  0.20473517  0.15245927  0.36782469     0.10950
H422        H  0.28039805  0.14758292  0.31218268     0.10950
C423        C  0.23741819  0.15164092  0.10171701    -0.15180
C424        C  0.26601326  0.15126777  0.10854944     0.06970
C425        C  0.27519175  0.15713892  0.14020625    -0.15180
C426        C  0.25587922  0.16014579  0.16544083    -0.15180
C427        C  0.22732291  0.15691280  0.15930668     0.06970
C428        C  0.21823382  0.15477681  0.12683858    -0.15180
H429        H  0.22995979  0.14766827  0.07729712     0.10950
H430        H  0.29728182  0.15757876  0.14572330     0.10950
H431        H  0.26346163  0.16165641  0.19001075     0.10950
H432        H  0.19637927  0.15162279  0.12140553     0.10950
C433        C  0.39793517  0.08468576  0.41144475    -0.15180
C434        C  0.36886502  0.08842265  0.40787762     0.06970
C435        C  0.35733445  0.08695731  0.37661224    -0.15180
C436        C  0.37454332  0.08503531  0.34943975    -0.15180
C437        C  0.40375481  0.08415520  0.35276628     0.06970
C438        C  0.41524558  0.08214334  0.38414443    -0.15180
H439        H  0.40752031  0.08645100  0.43501002     0.10950
H440        H  0.33514297  0.09070288  0.37294535     0.10950
H441        H  0.36502087  0.08697121  0.32572404     0.10950
H442        H  0.43764639  0.08193510  0.38760566     0.10950
C443        C  0.40436792  0.10199167  0.08345767    -0.15180
C444        C  0.37703788  0.09203829  0.08658011     0.06970
C445        C  0.37095305  0.07465837  0.11327999    -0.15180
C446        C  0.39059856  0.07060281  0.13835405    -0.15180
C447        C  0.41676220  0.08390970  0.13726650     0.06970
C448        C  0.42433771  0.09708975  0.10814306    -0.15180
H449        H  0.40975031  0.11538054  0.06315578     0.10950
H450        H  0.35008980  0.06675530  0.11638864     0.10950
H451        H  0.38410017  0.05978748  0.16022036     0.10950
H452        H  0.44467165  0.10624609  0.10590611     0.10950
C453        C  0.25511024  0.01849707  0.98112622    -0.15180
C454        C  0.26743377  0.02728914  0.01048073     0.06970
C455        C  0.26414665  0.50969343  0.53803656    -0.15180
C456        C  0.24889106  0.48428522  0.53643760    -0.15180
C457        C  0.23645237  0.47551208  0.50721393     0.06970
C458        C  0.23990277  0.99288860  0.47949237    -0.15180
H459        H  0.25698414  0.03153434  0.95947756     0.10950
H460        H  0.27320686  0.51565365  0.56112936     0.10950
H461        H  0.24704831  0.47136047  0.55817797     0.10950
H462        H  0.23082201  0.98670828  0.45648361     0.10950
C463        C  0.36541236  0.23545508  0.46115974    -0.15180
C464        C  0.34877250  0.22852380  0.98793979     0.06970
C465        C  0.34873043  0.24703085  0.01492316    -0.15180
C466        C  0.36578477  0.27102567  0.01579642    -0.15180
C467        C  0.38295618  0.27756862  0.98947387     0.06970
C468        C  0.38206798  0.25999354  0.46174847    -0.15180
H469        H  0.36614090  0.22146356  0.44013398     0.10950
H470        H  0.33651048  0.24224042  0.03612307     0.10950
H471        H  0.36546007  0.28456442  0.03721276     0.10950
H472        H  0.39473951  0.26479653  0.44092831     0.10950
C473        C  0.01026059  0.17536454  0.37188502    -0.15180
C474        C  0.00675834  0.15719180  0.39868006     0.06970
C475        C  0.48051012  0.14545080  0.40407474    -0.15180
C476        C  0.45845705  0.15068408  0.38237363    -0.15180
C477        C  0.46262948  0.16648727  0.35394747     0.06970
C478        C  0.98850493  0.17947570  0.34928988    -0.15180
H479        H  0.03036890  0.18454745  0.36718697     0.10950
H480        H  0.47727034  0.13109751  0.42420753     0.10950
H481        H  0.43913324  0.13954856  0.38589113     0.10950
H482        H  0.99261226  0.19068563  0.32682948     0.10950
C483        C  0.46089458  0.16100299  0.11366377    -0.15180
C484        C  0.47014498  0.17014531  0.14421184     0.06970
C485        C  0.99864452  0.17652419  0.14809610    -0.15180
C486        C  0.01796022  0.16899545  0.12406668    -0.15180
C487        C  0.00900574  0.15505868  0.09593297     0.06970
C488        C  0.48027144  0.15266708  0.09002772    -0.15180
H489        H  0.43904442  0.15700655  0.10942708     0.10950
H490        H  0.00650088  0.18426249  0.17111061     0.10950
H491        H  0.03999649  0.17161796  0.12874547     0.10950
H492        H  0.47290552  0.14263944  0.06796203     0.10950
C493        C  0.12301508  0.09138674  0.34830706    -0.15180
C494        C  0.15114825  0.09795397  0.35200592     0.06970
C495        C  0.16267972  0.10036116  0.38321709    -0.15180
C496        C  0.14538853  0.09961537  0.41031088    -0.15180
C497        C  0.11667635  0.09579079  0.40626240     0.06970
C498        C  0.10583221  0.09035117  0.37529099    -0.15180
H499        H  0.11414992  0.08810637  0.32451548     0.10950
H500        H  0.18456952  0.10482185  0.38645765     0.10950
H501        H  0.15395711  0.10453513  0.43395991     0.10950
H502        H  0.08360950  0.08798855  0.37168688     0.10950
C503        C  0.09446491  0.08078316  0.12260710    -0.15180
C504        C  0.10741609  0.08466927  0.09262503     0.06970
C505        C  0.13638845  0.08117401  0.09041018    -0.15180
C506        C  0.15253235  0.07738173  0.11833850    -0.15180
C507        C  0.13975040  0.07749653  0.14868417     0.06970
C508        C  0.11065372  0.07757710  0.15074419    -0.15180
H509        H  0.07215549  0.08424567  0.12483499     0.10950
H510        H  0.14673038  0.08498909  0.06779815     0.10950
H511        H  0.17503780  0.07801157  0.11653107     0.10950
H512        H  0.10060925  0.07822432  0.17414587     0.10950
C513        C  0.48960354  0.02945166  0.01206581    -0.15180
C514        C  0.00795723  0.03416611  0.98626704     0.06970
C515        C  0.00898340  0.51389937  0.46086734    -0.15180
C516        C  0.49258841  0.48936779  0.46141494    -0.15180
C517        C  0.47450934  0.48427700  0.98734250     0.06970
C518        C  0.47302692  0.00478589  0.01257839    -0.15180
H519        H  0.48796411  0.04485715  0.03175353     0.10950
H520        H  0.02269106  0.51685056  0.44048073     0.10950
H521        H  0.49456198  0.47401878  0.44170475     0.10950
H522        H  0.45960765  0.00141284  0.03313270     0.10950
C523        C  0.45555694  0.16290073  0.50343467    -0.15180
C524        C  0.46726196  0.13725887  0.49087558     0.06970
C525        C  0.45065047  0.11348359  0.98460171    -0.15180
C526        C  0.42264988  0.11493740  0.99186597    -0.15180
C527        C  0.41069281  0.14054769  0.50408820     0.06970
C528        C  0.42715383  0.16466659  0.50973388    -0.15180
H529        H  0.46848575  0.18111019  0.50911220     0.10950
H530        H  0.45965665  0.09315693  0.97611287     0.10950
H531        H  0.41041182  0.09579691  0.98869776     0.10950
H532        H  0.41814988  0.18463471  0.51913252     0.10950
C533        C  0.17790436  0.15701700  0.98281122    -0.15180
C534        C  0.16020538  0.13561020  0.99430079     0.06970
C535        C  0.17209312  0.11100402  0.50951886    -0.15180
C536        C  0.20085669  0.10835126  0.51449026    -0.15180
C537        C  0.21848532  0.12973633  0.00311338     0.06970
C538        C  0.20682366  0.15391761  0.98683899    -0.15180
H539        H  0.16942000  0.17618855  0.97085925     0.10950
H540        H  0.15912991  0.09354698  0.51709394     0.10950
H541        H  0.20942841  0.08895263  0.52593871     0.10950
H542        H  0.22011401  0.17038807  0.97722340     0.10950
C543        C  0.11885372  0.23324526  0.04137120    -0.15180
C544        C  0.10324734  0.22624416  0.51357919     0.06970
C545        C  0.10667220  0.24230672  0.48505535    -0.15180
C546        C  0.12587212  0.26434921  0.48402211    -0.15180
C547        C  0.14147870  0.27127653  0.51167940     0.06970
C548        C  0.13743181  0.25607354  0.04060794    -0.15180
H549        H  0.11687721  0.22089701  0.06351508     0.10950
H550        H  0.09533300  0.23709100  0.46310097     0.10950
H551        H  0.12800392  0.27656376  0.46178910     0.10950
H552        H  0.14878022  0.26173389  0.06240407     0.10950
O553        O  0.09531746  0.17829921  0.53011524    -0.81970
O554        O  0.00814982  0.11529049  0.97105230    -0.81990
O555        O  0.04184096  0.16913446  0.93708079    -0.82000
O556        O  0.02609565  0.11383620  0.56761395    -0.81940
O557        O  0.03832255  0.12281092  0.92289637    -0.82070
O558        O  0.04712487  0.15504347  0.55798054    -0.81990
O559        O  0.01116232  0.14185215  0.51348307    -0.81970
O560        O  0.07026160  0.19557062  0.98916059    -0.82010
C561        C  0.08753270  0.19933273  0.01211599     1.07720
C562        C  0.49705867  0.13246857  0.99079940     1.07600
C563        C  0.03041562  0.14941544  0.92035093     1.07740
C564        C  0.02904683  0.14050037  0.57411433     1.07620
O565        O  0.09778965  0.13044214  0.57096421    -0.81970
O566        O  0.08674612  0.09285085  0.95195636    -0.82050
O567        O  0.11850625  0.16002487  0.97561831    -0.81980
O568        O  0.02710225  0.07813612  0.50938979    -0.81960
O569        O  0.03477556  0.06743639  0.95655790    -0.82020
O570        O  0.11445905  0.12313462  0.50894399    -0.81980
O571        O  0.07684442  0.09400913  0.54666840    -0.81940
O572        O  0.09050994  0.13458118  0.92583141    -0.82010
Co573      Co  0.08054003  0.13837209  0.53078392     1.51530
Co574      Co  0.04848404  0.10404206  0.96554442     1.51690
Co575      Co  0.07905492  0.16416008  0.95833825     1.51570
Co576      Co  0.04369250  0.11814622  0.52676406     1.51470
O577        O  0.06186058  0.13622267  0.48850308    -1.43910
C578        C  0.09330217  0.10357001  0.56912216     1.07650
C579        C  0.09758328  0.10815875  0.93003535     1.07740
C580        C  0.12949975  0.13946212  0.49226469     1.07670
C581        C  0.02462805  0.06085442  0.48416132     1.07650
O582        O  0.28989497  0.06345235  0.54170874    -0.81970
O583        O  0.36602479  0.12386391  0.99509132    -0.81990
O584        O  0.33646590  0.09279875  0.95382517    -0.82000
O585        O  0.34614940  0.13103092  0.57336189    -0.81940
O586        O  0.35374536  0.13195033  0.93186700    -0.82070
O587        O  0.34096106  0.09035106  0.54575206    -0.81990
O588        O  0.36962297  0.16226808  0.52512152    -0.81970
O589        O  0.28515530  0.07219072  0.98798490    -0.82010
C590        C  0.28203766  0.05542077  0.51344850     1.07720
C591        C  0.38081951  0.14204625  0.00901917     1.07600
C592        C  0.35255346  0.10466224  0.93249132     1.07740
C593        C  0.35385179  0.10506120  0.56696335     1.07620
O594        O  0.29321449  0.11760397  0.57762409    -0.81970
O595        O  0.30085597  0.15106689  0.94043792    -0.82050
O596        O  0.26305256  0.13193505  0.98030552    -0.81980
O597        O  0.31999372  0.19456984  0.51430421    -0.81960
O598        O  0.34460556  0.17930631  0.97232388    -0.82020
O599        O  0.26063337  0.11083069  0.52698193    -0.81980
O600        O  0.29500343  0.16440982  0.56545201    -0.81940
O601        O  0.28589302  0.10725877  0.92850684    -0.82010
Co602      Co  0.30164227  0.10103589  0.53341015     1.51530
Co603      Co  0.33333943  0.13768714  0.97047984     1.51690
Co604      Co  0.29956788  0.11306886  0.97129643     1.51570
Co605      Co  0.33119450  0.16194554  0.54298465     1.51470
O606        O  0.31310548  0.13461051  0.51121937    -1.43910
C607        C  0.28590978  0.14403721  0.58270875     1.07650
C608        C  0.28726299  0.13403154  0.92150580     1.07740
C609        C  0.24889607  0.12458052  0.50401598     1.07670
C610        C  0.33581044  0.19980815  0.99052794     1.07650
O611        O  0.15200254  0.31733758  0.53127182    -0.81970
O612        O  0.23758925  0.38949780  0.96399211    -0.81990
O613        O  0.20121038  0.33216099  0.93688768    -0.82000
O614        O  0.21923497  0.37613655  0.56550174    -0.81940
O615        O  0.22052329  0.37636696  0.94078361    -0.82070
O616        O  0.20201481  0.33423439  0.55515777    -0.81990
O617        O  0.24055302  0.38115324  0.51504103    -0.81970
O618        O  0.17358598  0.30229689  0.98711267    -0.82010
C619        C  0.15786539  0.29751257  0.01104064     1.07720
C620        C  0.25239256  0.38300368  0.98861724     1.07600
C621        C  0.21968949  0.35018707  0.92878041     1.07740
C622        C  0.21949681  0.34914944  0.57031711     1.07620
O623        O  0.15546124  0.36259809  0.57581346    -0.81970
O624        O  0.17521990  0.41007730  0.93974863    -0.82050
O625        O  0.12757534  0.34203085  0.98071127    -0.81980
O626        O  0.21753072  0.43262622  0.53149706    -0.81960
O627        O  0.21374226  0.43745800  0.97768152    -0.82020
O628        O  0.13591769  0.37584246  0.51606032    -0.81980
O629        O  0.16717382  0.40450610  0.55260380    -0.81940
O630        O  0.15340528  0.36922285  0.93230540    -0.82010
Co631      Co  0.16969572  0.35561222  0.53494239     1.51530
Co632      Co  0.19845647  0.39776543  0.97781586     1.51690
Co633      Co  0.16587580  0.33774086  0.96143797     1.51570
Co634      Co  0.20236479  0.39320528  0.52531638     1.51470
O635        O  0.18819595  0.35942359  0.99587788    -1.43910
C636        C  0.15611924  0.39005049  0.57628733     1.07650
C637        C  0.15697800  0.39537255  0.92553168     1.07740
C638        C  0.11884130  0.36258815  0.99851251     1.07670
C639        C  0.22153764  0.44753922  0.00543781     1.07650
O640        O  0.44457911  0.45068989  0.51347287    -0.81970
O641        O  0.38076634  0.36793399  0.98040087    -0.81990
O642        O  0.41968055  0.41565334  0.94042917    -0.82000
O643        O  0.39787286  0.37380164  0.55606971    -0.81940
O644        O  0.40502756  0.37245017  0.93138202    -0.82070
O645        O  0.41508599  0.41872103  0.56211505    -0.81990
O646        O  0.38168458  0.36167523  0.53179051    -0.81970
O647        O  0.46763192  0.43580391  0.97000189    -0.82010
C648        C  0.46058897  0.45590316  0.98978454     1.07720
C649        C  0.36782622  0.36711342  0.50628797     1.07600
C650        C  0.40280351  0.39924235  0.92607704     1.07740
C651        C  0.39775137  0.39928660  0.56971119     1.07620
O652        O  0.46303089  0.38227951  0.56743799    -0.81970
O653        O  0.45772563  0.34674288  0.94873252    -0.82050
O654        O  0.48433802  0.37733450  0.98735985    -0.81980
O655        O  0.40610223  0.31452236  0.51886711    -0.81960
O656        O  0.40648287  0.31754416  0.96492358    -0.82020
O657        O  0.49082302  0.41188168  0.52195394    -0.81980
O658        O  0.44218222  0.34119910  0.55819909    -0.81940
O659        O  0.47036076  0.38836325  0.92542181    -0.82010
Co660      Co  0.45143956  0.41448218  0.53865736     1.51530
Co661      Co  0.42020330  0.35720656  0.97289156     1.51690
Co662      Co  0.45183464  0.39631293  0.96448032     1.51570
Co663      Co  0.42097078  0.35400910  0.51915048     1.51470
O664        O  0.43108546  0.39275020  0.50197780    -1.43910
C665        C  0.45942263  0.35597865  0.57375112     1.07650
C666        C  0.47184800  0.36080668  0.92694852     1.07740
C667        C  0.50057708  0.39115249  0.50522150     1.07670
C668        C  0.39992360  0.30388029  0.49094409     1.07650
O669        O  0.20578057  0.11569328  0.67563933    -0.81970
O670        O  0.20070717  0.14916483  0.80168868    -0.81990
O671        O  0.14601345  0.16738890  0.71730960    -0.82000
O672        O  0.25018176  0.07176719  0.75910540    -0.81940
O673        O  0.16364923  0.17850468  0.76489375    -0.82070
O674        O  0.24598434  0.09859487  0.71660623    -0.81990
O675        O  0.23506123  0.11863076  0.79314735    -0.81970
O676        O  0.20171194  0.15100076  0.70978868    -0.82010
C677        C  0.21084522  0.14120340  0.68316838     1.07720
C678        C  0.22483258  0.13967664  0.80841096     1.07600
C679        C  0.14871359  0.18591275  0.74030031     1.07740
C680        C  0.26025222  0.08972870  0.74031474     1.07620
O681        O  0.21708761  0.04360607  0.72467701    -0.81970
O682        O  0.14057077  0.13044655  0.78148619    -0.82050
O683        O  0.15636256  0.11310174  0.68375199    -0.81980
O684        O  0.18867535  0.08652339  0.81840347    -0.81960
O685        O  0.16080103  0.12372307  0.80357099    -0.82020
O686        O  0.17304076  0.06817210  0.68991433    -0.81980
O687        O  0.20224495  0.04318982  0.77536549    -0.81940
O688        O  0.13283399  0.11103240  0.73610256    -0.82010
Co689      Co  0.20931033  0.08227439  0.70483109     1.51530
Co690      Co  0.17903509  0.13879868  0.76220103     1.51690
Co691      Co  0.16774658  0.13060302  0.72627421     1.51570
Co692      Co  0.21665356  0.08175491  0.78418728     1.51470
O693        O  0.19152487  0.09804574  0.74662529    -1.43910
C694        C  0.21269008  0.03027936  0.75105798     1.07650
C695        C  0.12328108  0.11823800  0.76272915     1.07740
C696        C  0.15635266  0.08623890  0.67646405     1.07670
C697        C  0.16807258  0.10316688  0.82333122     1.07650
O698        O  0.41515072  0.09329710  0.69271372    -0.81970
O699        O  0.44619996  0.08457476  0.82106512    -0.81990
O700        O  0.47965813  0.07861802  0.72390626    -0.82000
O701        O  0.38083214  0.14966202  0.77264598    -0.81940
O702        O  0.44466249  0.06718551  0.75601260    -0.82070
O703        O  0.38201587  0.11448560  0.73740340    -0.81990
O704        O  0.40990561  0.11067809  0.80404115    -0.81970
O705        O  0.45400736  0.10429127  0.67050608    -0.82010
C706        C  0.43048589  0.09204784  0.66851542     1.07720
C707        C  0.42102877  0.09292399  0.82477734     1.07600
C708        C  0.46610985  0.05979851  0.73960859     1.07740
C709        C  0.36895272  0.12923013  0.75801189     1.07620
O710        O  0.39530902  0.17335318  0.71986477    -0.81970
O711        O  0.98940207  0.09817576  0.78043154    -0.82050
O712        O  0.46690214  0.16076138  0.69960789    -0.81980
O713        O  0.42114134  0.16594745  0.82014576    -0.81960
O714        O  0.45892926  0.14014703  0.80618610    -0.82020
O715        O  0.42960233  0.15214712  0.67130944    -0.81980
O716        O  0.42676583  0.18483504  0.75668097    -0.81940
O717        O  0.99596108  0.13475157  0.74844063    -0.82010
Co718      Co  0.40675336  0.13269072  0.70699770     1.51530
Co719      Co  0.44797216  0.10406338  0.77975314     1.51690
Co720      Co  0.47267304  0.12040833  0.71224137     1.51570
Co721      Co  0.42260003  0.14716835  0.77866261     1.51470
O722        O  0.43793537  0.12625914  0.73927628    -1.43910
C723        C  0.40639164  0.19212455  0.73821696     1.07650
C724        C  0.00548906  0.11645346  0.76856345     1.07740
C725        C  0.45363223  0.16340100  0.67348882     1.07670
C726        C  0.44643264  0.15802117  0.82537799     1.07650
O727        O  0.02835133  0.38138857  0.68330778    -0.81970
O728        O  0.06414893  0.33999212  0.81415270    -0.81990
O729        O  0.08185234  0.31074794  0.71751242    -0.82000
O730        O  0.49425515  0.38084054  0.75992142    -0.81940
O731        O  0.09572429  0.31407695  0.76899610    -0.82070
O732        O  0.49842256  0.41519328  0.72397148    -0.81990
O733        O  0.02376750  0.34909387  0.79657130    -0.81970
O734        O  0.02890028  0.34067735  0.71148604    -0.82010
C735        C  0.02150034  0.35509054  0.68642996     1.07720
C736        C  0.03855017  0.33951328  0.81908491     1.07600
C737        C  0.09480277  0.29957622  0.74227574     1.07740
C738        C  0.48488493  0.39500177  0.73626047     1.07620
O739        O  0.04669381  0.44536282  0.74289207    -0.81970
O740        O  0.11007501  0.37041434  0.77826947    -0.82050
O741        O  0.07797292  0.36714156  0.68361052    -0.81980
O742        O  0.05530194  0.40051931  0.82104399    -0.81960
O743        O  0.09324483  0.37733031  0.80093247    -0.82020
O744        O  0.07767390  0.41281979  0.69929769    -0.81980
O745        O  0.01768493  0.43382447  0.78176724    -0.81940
O746        O  0.10800899  0.35937383  0.72859796    -0.82010
Co747      Co  0.03920948  0.41232637  0.71460093     1.51530
Co748      Co  0.07411966  0.35128442  0.76838091     1.51690
Co749      Co  0.06702947  0.35033841  0.72673649     1.51570
Co750      Co  0.02453157  0.39093146  0.78839550     1.51470
O751        O  0.05232111  0.38624220  0.75200904    -1.43910
C752        C  0.02784933  0.45256196  0.76283497     1.07650
C753        C  0.12250899  0.36779824  0.75174001     1.07740
C754        C  0.08611513  0.39307300  0.68045486     1.07670
C755        C  0.08164862  0.39480405  0.82160572     1.07650
O756        O  0.33172717  0.37887465  0.69160532    -0.81970
O757        O  0.29943479  0.38724788  0.82897488    -0.81990
O758        O  0.30111468  0.42195093  0.74444029    -0.82000
O759        O  0.36542441  0.37608050  0.75455254    -0.81940
O760        O  0.26858895  0.40991131  0.77972003    -0.82070
O761        O  0.36288599  0.34050612  0.71998105    -0.81990
O762        O  0.33588445  0.39818321  0.80166001    -0.81970
O763        O  0.29472267  0.40616230  0.67924844    -0.82010
C764        C  0.31961141  0.39790536  0.67318919     1.07720
C765        C  0.32241619  0.40059450  0.82720102     1.07600
C766        C  0.28129686  0.42883179  0.76354710     1.07740
C767        C  0.37564829  0.36178056  0.73153398     1.07620
O768        O  0.31991197  0.30488170  0.74174449    -0.81970
O769        O  0.25238745  0.35343276  0.75723439    -0.82050
O770        O  0.28343660  0.34994748  0.69354880    -0.81980
O771        O  0.32346372  0.34006585  0.82797822    -0.81960
O772        O  0.28562658  0.32893575  0.80276952    -0.82020
O773        O  0.32014207  0.32367300  0.67733612    -0.81980
O774        O  0.35359865  0.31754298  0.77552752    -0.81940
O775        O  0.25453612  0.39060004  0.72493563    -0.82010
Co776      Co  0.32126014  0.34244437  0.71876593     1.51530
Co777      Co  0.27762356  0.36887747  0.79050298     1.51690
Co778      Co  0.29602418  0.38571135  0.72020555     1.51570
Co779      Co  0.34324348  0.35840181  0.78836215     1.51470
O780        O  0.30955901  0.36349642  0.75941865    -1.43910
C781        C  0.34150385  0.29830106  0.75872248     1.07650
C782        C  0.24034561  0.37164859  0.73887647     1.07740
C783        C  0.29494694  0.33232278  0.67314027     1.07670
C784        C  0.29948430  0.32846268  0.82843384     1.07650
C785        C  0.43666038  0.40798916  0.71938063    -0.15180
C786        C  0.45775482  0.38706864  0.72398553     0.06970
C787        C  0.45147257  0.35760190  0.72392649    -0.15180
C788        C  0.42418072  0.34892874  0.72068452    -0.15180
C789        C  0.40283033  0.36985788  0.72018829     0.06970
C790        C  0.40909235  0.39938389  0.71852467    -0.15180
H791        H  0.44116981  0.43080876  0.72049535     0.10950
H792        H  0.46754272  0.34136504  0.72916832     0.10950
H793        H  0.41962550  0.32620157  0.72312868     0.10950
H794        H  0.39269075  0.41579270  0.71997882     0.10950
C795        C  0.16636068  0.39597611  0.75379800    -0.15180
C796        C  0.15253812  0.37018789  0.74788589     0.06970
C797        C  0.16732275  0.34599673  0.73586345    -0.15180
C798        C  0.19592513  0.34699433  0.73124410    -0.15180
C799        C  0.20996148  0.37250703  0.73758608     0.06970
C800        C  0.19506731  0.39721138  0.74833830    -0.15180
H801        H  0.15502603  0.41497304  0.76236724     0.10950
H802        H  0.15675330  0.32603633  0.73081689     0.10950
H803        H  0.20723171  0.32769204  0.72343407     0.10950
H804        H  0.20585921  0.41691419  0.75394735     0.10950
C805        C  0.47281315  0.01280219  0.76987704    -0.15180
C806        C  0.47965358  0.03079749  0.74379849     0.06970
C807        C  0.00335474  0.02349490  0.72537090    -0.15180
C808        C  0.01996563  0.99917390  0.73296307    -0.15180
C809        C  0.01325895  0.48113120  0.75902937     0.06970
C810        C  0.48938191  0.48820318  0.77734661    -0.15180
H811        H  0.45512019  0.01813777  0.78505139     0.10950
H812        H  0.00952373  0.03701839  0.70535536     0.10950
H813        H  0.03776289  0.99416330  0.71782465     0.10950
H814        H  0.48324046  0.47448308  0.79718639     0.10950
C815        C  0.39528239  0.23725124  0.77027072    -0.15180
C816        C  0.39147573  0.22059345  0.74216455     0.06970
C817        C  0.36985937  0.22893467  0.72046722    -0.15180
C818        C  0.35255579  0.25319284  0.72668836    -0.15180
C819        C  0.35635055  0.26981873  0.75480880     0.06970
C820        C  0.37800553  0.26152724  0.77646344    -0.15180
H821        H  0.41119636  0.23113397  0.78792496     0.10950
H822        H  0.36605630  0.21643668  0.69876333     0.10950
H823        H  0.33666459  0.25935768  0.70902568     0.10950
H824        H  0.38181925  0.27406154  0.79814285     0.10950
C825        C  0.23875531  0.48871995  0.72734944    -0.15180
C826        C  0.22708555  0.50202416  0.75492119     0.06970
C827        C  0.23534613  0.49212208  0.78583140    -0.15180
C828        C  0.25509087  0.46954845  0.78894354    -0.15180
C829        C  0.26728370  0.45707583  0.76127833     0.06970
C830        C  0.25893264  0.46680218  0.73051647    -0.15180
H831        H  0.23296613  0.49594681  0.70317700     0.10950
H832        H  0.22724337  0.00235603  0.80751777     0.10950
H833        H  0.26051236  0.46141149  0.81287641     0.10950
H834        H  0.26697133  0.45644074  0.70886082     0.10950
C835        C  0.11727752  0.22408113  0.71393996    -0.15180
C836        C  0.13511992  0.21511816  0.73944770     0.06970
C837        C  0.13988746  0.23439474  0.76514429    -0.15180
C838        C  0.12693706  0.26170979  0.76568908    -0.15180
C839        C  0.10886461  0.27068119  0.74050418     0.06970
C840        C  0.10430328  0.25169055  0.71442743    -0.15180
H841        H  0.11320239  0.20973075  0.69382476     0.10950
H842        H  0.15359400  0.22833804  0.78514582     0.10950
H843        H  0.13111111  0.27582774  0.78600078     0.10950
H844        H  0.09045113  0.25801468  0.69466907     0.10950
C845        C  0.30847022  0.08200850  0.75948193    -0.15180
C846        C  0.28761899  0.10096602  0.74776852     0.06970
C847        C  0.29240178  0.13074100  0.74621469    -0.15180
C848        C  0.31872354  0.14117501  0.75380420    -0.15180
C849        C  0.34016584  0.12173722  0.76305120     0.06970
C850        C  0.33467342  0.09227608  0.76665228    -0.15180
H851        H  0.30484733  0.05905623  0.76160500     0.10950
H852        H  0.27580005  0.14577881  0.73938665     0.10950
H853        H  0.32284404  0.16387859  0.75020973     0.10950
H854        H  0.35130756  0.07682962  0.77249608     0.10950
C855        C  0.07903248  0.09302136  0.75326114    -0.15180
C856        C  0.09389881  0.11377238  0.77059694     0.06970
C857        C  0.07949143  0.13308685  0.79117835    -0.15180
C858        C  0.05032204  0.13316473  0.79219828    -0.15180
C859        C  0.03559248  0.11342005  0.77332467     0.06970
C860        C  0.05008873  0.09272597  0.75482040    -0.15180
H861        H  0.08970593  0.07796709  0.73721611     0.10950
H862        H  0.09059576  0.14939388  0.80454339     0.10950
H863        H  0.03926605  0.14936340  0.80642357     0.10950
H864        H  0.03890536  0.07752154  0.73993158     0.10950
C865        C  0.01968320  0.35396753  0.90513731    -0.15180
C866        C  0.49161760  0.34592614  0.90505250     0.06970
C867        C  0.48150433  0.32962416  0.87910252    -0.15180
C868        C  0.49831680  0.32426222  0.85204587    -0.15180
C869        C  0.02568605  0.33448719  0.85095156     0.06970
C870        C  0.03681822  0.34761234  0.87862658    -0.15180
H871        H  0.02769064  0.36727705  0.92447798     0.10950
H872        H  0.45979889  0.32376290  0.87821769     0.10950
H873        H  0.48914155  0.31441892  0.83080109     0.10950
H874        H  0.05766972  0.35595547  0.87825432     0.10950
C875        C  0.00551002  0.34945282  0.59915651    -0.15180
C876        C  0.47707474  0.34339393  0.59978468     0.06970
C877        C  0.46571730  0.33212746  0.62827717    -0.14940
C878        C  0.48187371  0.33088078  0.65694164    -0.15180
C879        C  0.00891994  0.34186553  0.65728193     0.06970
C880        C  0.02126319  0.34864947  0.62758068    -0.15180
H881        H  0.01480501  0.35785119  0.57733382     0.10950
H882        H  0.44384677  0.32700131  0.62917793     0.10950
H883        H  0.47241217  0.32372985  0.67896840     0.10950
H884        H  0.04228055  0.35667629  0.62695395     0.10950
C885        C  0.35241811  0.40088342  0.91085260    -0.15180
C886        C  0.37971488  0.40979852  0.90465559     0.06970
C887        C  0.38497104  0.42341233  0.87513100    -0.15180
C888        C  0.36427985  0.42447032  0.85082452    -0.15180
C889        C  0.33791206  0.41213755  0.85576433     0.06970
C890        C  0.33138304  0.40329237  0.88714125    -0.15180
H891        H  0.34786539  0.38994412  0.93318031     0.10950
H892        H  0.40576241  0.43041726  0.86961170     0.10950
H893        H  0.36996441  0.43216479  0.82703767     0.10950
H894        H  0.31091593  0.39543644  0.89234899     0.10950
C895        C  0.34784748  0.39782170  0.58877013    -0.15180
C896        C  0.37561995  0.40591648  0.59417641     0.06970
C897        C  0.38251892  0.41747397  0.62460000    -0.15180
C898        C  0.36285938  0.41823135  0.64973637    -0.15180
C899        C  0.33572137  0.40811422  0.64492998     0.06970
C900        C  0.32804021  0.39935248  0.61365887    -0.15180
H901        H  0.34160947  0.38915277  0.56573154     0.10950
H902        H  0.40365118  0.42391967  0.62968227     0.10950
H903        H  0.36925519  0.42521608  0.67352018     0.10950
H904        H  0.30739558  0.39127668  0.60917624     0.10950
C905        C  0.25581462  0.31426686  0.85674080    -0.15180
C906        C  0.28311910  0.32492061  0.85885363     0.06970
C907        C  0.29037647  0.34007686  0.88692641    -0.15180
C908        C  0.26988713  0.34858180  0.90943261    -0.15180
C909        C  0.24202845  0.34007496  0.90590004     0.06970
C910        C  0.23569290  0.32143643  0.88014549    -0.15180
H911        H  0.24934652  0.30223365  0.83558217     0.10950
H912        H  0.31143897  0.34732729  0.89004861     0.10950
H913        H  0.27588339  0.36238481  0.92900951     0.10950
H914        H  0.21465745  0.31392969  0.87688604     0.10950
C915        C  0.23061080  0.32467213  0.62288359    -0.15180
C916        C  0.23975447  0.33610486  0.59348707     0.06970
C917        C  0.26844864  0.33938292  0.58873778    -0.15180
C918        C  0.28760396  0.33303350  0.61372849    -0.15180
C919        C  0.27815022  0.32486413  0.64438409     0.06970
C920        C  0.24962837  0.31951345  0.64832690    -0.15180
H921        H  0.20854530  0.32236899  0.62719696     0.10950
H922        H  0.27585856  0.34864815  0.56645637     0.10950
H923        H  0.30934849  0.33782765  0.61025123     0.10950
H924        H  0.24174935  0.31385332  0.67196743     0.10950
C925        C  0.12894855  0.40769396  0.84216091    -0.15180
C926        C  0.10007096  0.40597161  0.84771866     0.06970
C927        C  0.09048449  0.40876764  0.87964046    -0.15180
C928        C  0.10958718  0.40915615  0.90560176    -0.15180
C929        C  0.13850059  0.40764571  0.90000239     0.06970
C930        C  0.14797894  0.40851165  0.86804846    -0.15180
H931        H  0.13703181  0.40592138  0.81784656     0.10950
H932        H  0.06845723  0.40756779  0.88477469     0.10950
H933        H  0.10180796  0.40785050  0.93012642     0.10950
H934        H  0.17008607  0.40669236  0.86309277     0.10950
C935        C  0.15245568  0.39466302  0.63440872    -0.15180
C936        C  0.14267375  0.40380780  0.60383991     0.06970
C937        C  0.11529143  0.41459354  0.60035450    -0.15180
C938        C  0.09688925  0.41272976  0.62629027    -0.15180
C939        C  0.10600774  0.40005492  0.65549654     0.06970
C940        C  0.13408683  0.39245148  0.66005379    -0.15180
H941        H  0.17345160  0.38575152  0.63729530     0.10950
H942        H  0.10738635  0.42136146  0.57688717     0.10950
H943        H  0.07517673  0.41903748  0.62281164     0.10950
H944        H  0.14140991  0.38304999  0.68264663     0.10950
C945        C  0.29258487  0.35180812  0.50213125    -0.15180
C946        C  0.28207895  0.37763423  0.98837725     0.06970
C947        C  0.29958673  0.40077816  0.98308718    -0.15180
C948        C  0.32758986  0.39808315  0.99165533    -0.15180
C949        C  0.33809542  0.37220682  0.50524472     0.06970
C950        C  0.32060106  0.34906252  0.51052997    -0.15180
H951        H  0.27885704  0.33412749  0.50713004     0.10950
H952        H  0.29137469  0.42117355  0.97365433     0.10950
H953        H  0.34128696  0.41584674  0.98694121     0.10950
H954        H  0.32876964  0.32873435  0.52018064     0.10950
C955        C  0.07919933  0.39588356  0.51502684    -0.15180
C956        C  0.08860073  0.37009678  0.00016663     0.06970
C957        C  0.06880527  0.35107571  0.48783898    -0.15180
C958        C  0.04030052  0.35766940  0.49035508    -0.15180
C959        C  0.03083862  0.38356365  0.50498536     0.06970
C960        C  0.05062244  0.40250923  0.51755622    -0.15180
H961        H  0.09395061  0.41119046  0.02420052     0.10950
H962        H  0.07529033  0.33094846  0.97646687     0.10950
H963        H  0.02561215  0.34249483  0.48057240     0.10950
H964        H  0.04404750  0.42272043  0.52869898     0.10950
C965        C  0.28547239  0.14699143  0.86369390    -0.15180
C966        C  0.27194201  0.14533944  0.89347265     0.06970
C967        C  0.24293791  0.14927894  0.89499793    -0.15180
C968        C  0.22726928  0.15218449  0.86644904    -0.15180
C969        C  0.24056637  0.15020475  0.83635896     0.06970
C970        C  0.26981801  0.14933813  0.83517999    -0.15180
H971        H  0.30787584  0.14377910  0.86230694     0.10950
H972        H  0.23231537  0.14778818  0.91797659     0.10950
H973        H  0.20473402  0.15245643  0.86782563     0.10950
H974        H  0.28039726  0.14758360  0.81218391     0.10950
C975        C  0.23741941  0.15164356  0.60171667    -0.15180
C976        C  0.26601441  0.15127284  0.60854942     0.06970
C977        C  0.27519197  0.15714438  0.64020657    -0.15180
C978        C  0.25587889  0.16014946  0.66544095    -0.15180
C979        C  0.22732289  0.15691447  0.65930632     0.06970
C980        C  0.21823452  0.15477772  0.62683797    -0.15180
H981        H  0.22996159  0.14767030  0.57729669     0.10950
H982        H  0.29728190  0.15758581  0.64572403     0.10950
H983        H  0.26346086  0.16166061  0.69001102     0.10950
H984        H  0.19638030  0.15162213  0.62140444     0.10950
C985        C  0.39793162  0.08467948  0.91144092    -0.15180
C986        C  0.36886167  0.08841947  0.90787439     0.06970
C987        C  0.35733094  0.08695842  0.87660874    -0.15180
C988        C  0.37453958  0.08503757  0.84943591    -0.15180
C989        C  0.40375111  0.08415421  0.85276212     0.06970
C990        C  0.41524177  0.08213809  0.88414011    -0.15180
H991        H  0.40751705  0.08644121  0.93500647     0.10950
H992        H  0.33513973  0.09070639  0.87294232     0.10950
H993        H  0.36501708  0.08697674  0.82572051     0.10950
H994        H  0.43764262  0.08192709  0.88760127     0.10950
C995        C  0.40437066  0.10200210  0.58345668    -0.15180
C996        C  0.37704166  0.09204569  0.58657815     0.06970
C997        C  0.37095870  0.07466231  0.61327581    -0.15180
C998        C  0.39060474  0.07060639  0.63834926    -0.15180
C999        C  0.41676700  0.08391619  0.63726302     0.06970
C1000       C  0.42434111  0.09709953  0.60814105    -0.15180
H1001       H  0.40975162  0.11539377  0.56315664     0.10950
H1002       H  0.35009628  0.06675675  0.61638363     0.10950
H1003       H  0.38410756  0.05978853  0.66021449     0.10950
H1004       H  0.44467412  0.10625808  0.60590502     0.10950
C1005       C  0.25511777  0.01849851  0.48112738    -0.15180
C1006       C  0.26744023  0.02729177  0.51048204     0.06970
C1007       C  0.26413825  0.50969163  0.03803552    -0.15180
C1008       C  0.24887984  0.48428535  0.03643699    -0.15180
C1009       C  0.23644025  0.47551330  0.00721344     0.06970
C1010       C  0.23989246  0.99288899  0.97949160    -0.15180
H1011       H  0.25699036  0.03153622  0.45947887     0.10950
H1012       H  0.27319903  0.51565108  0.06112828     0.10950
H1013       H  0.24703569  0.47136113  0.05817756     0.10950
H1014       H  0.23081103  0.98670939  0.95648294     0.10950
C1015       C  0.36540989  0.23545167  0.96116295    -0.15180
C1016       C  0.34877618  0.22852786  0.48793789     0.06970
C1017       C  0.34873817  0.24703351  0.51492235    -0.15180
C1018       C  0.36579534  0.27102612  0.51579533    -0.15180
C1019       C  0.38296560  0.27756834  0.48947143     0.06970
C1020       C  0.38206266  0.25999221  0.96175193    -0.15180
H1021       H  0.36614148  0.22145924  0.94013806     0.10950
H1022       H  0.33651942  0.24224338  0.53612330     0.10950
H1023       H  0.36547379  0.28456369  0.53721263     0.10950
H1024       H  0.39473520  0.26479570  0.94093276     0.10950
C1025       C  0.01025606  0.17536204  0.87188890    -0.15180
C1026       C  0.00675585  0.15718387  0.89867974     0.06970
C1027       C  0.48050879  0.14543957  0.90407242    -0.15180
C1028       C  0.45845490  0.15067522  0.88237319    -0.15180
C1029       C  0.46262551  0.16648387  0.85395045     0.06970
C1030       C  0.98849972  0.17947538  0.84929513    -0.15180
H1031       H  0.03036340  0.18454789  0.86719273     0.10950
H1032       H  0.47727049  0.13108245  0.92420220     0.10950
H1033       H  0.43913198  0.13953763  0.88588872     0.10950
H1034       H  0.99260572  0.19068962  0.82683709     0.10950
C1035       C  0.46089915  0.16101239  0.61366540    -0.15180
C1036       C  0.47014978  0.17015154  0.64421463     0.06970
C1037       C  0.99865000  0.17652699  0.64810041    -0.15180
C1038       C  0.01796552  0.16899818  0.62407079    -0.15180
C1039       C  0.00901025  0.15506477  0.59593528     0.06970
C1040       C  0.48027575  0.15267647  0.59002903    -0.15180
H1041       H  0.43904864  0.15701843  0.60942766     0.10950
H1042       H  0.00650670  0.18426273  0.67111588     0.10950
H1043       H  0.04000201  0.17161803  0.62875050     0.10950
H1044       H  0.47290931  0.14265131  0.56796215     0.10950
C1045       C  0.12301506  0.09138210  0.84830666    -0.15180
C1046       C  0.15114816  0.09794954  0.85200615     0.06970
C1047       C  0.16267915  0.10035608  0.88321765    -0.15180
C1048       C  0.14538757  0.09960937  0.91031116    -0.15180
C1049       C  0.11667545  0.09578455  0.90626215     0.06970
C1050       C  0.10583184  0.09034559  0.87529031    -0.15180
H1051       H  0.11415018  0.08810245  0.82451478     0.10950
H1052       H  0.18456881  0.10481713  0.88645876     0.10950
H1053       H  0.15395581  0.10452870  0.93396047     0.10950
H1054       H  0.08360920  0.08798288  0.87168567     0.10950
C1055       C  0.09446210  0.08079441  0.62260985    -0.15180
C1056       C  0.10741400  0.08467280  0.59262691     0.06970
C1057       C  0.13638555  0.08116858  0.59041174    -0.15180
C1058       C  0.15252892  0.07737566  0.61834053    -0.15180
C1059       C  0.13974717  0.07749875  0.64868648     0.06970
C1060       C  0.11065041  0.07758775  0.65074704    -0.15180
H1061       H  0.07215346  0.08426353  0.62483767     0.10950
H1062       H  0.14672811  0.08497654  0.56779849     0.10950
H1063       H  0.17503468  0.07799864  0.61653257     0.10950
H1064       H  0.10060624  0.07824119  0.67414876     0.10950
C1065       C  0.48961346  0.02945158  0.51206786    -0.15180
C1066       C  0.00796516  0.03416906  0.48626799     0.06970
C1067       C  0.00897244  0.51389717  0.96086559    -0.15180
C1068       C  0.49257264  0.48936916  0.96141140    -0.15180
C1069       C  0.47452685  0.48427292  0.48734695     0.06970
C1070       C  0.47304150  0.00478242  0.51258210    -0.15180
H1071       H  0.48797200  0.04485725  0.53175519     0.10950
H1072       H  0.02268124  0.51684625  0.94047962     0.10950
H1073       H  0.49454408  0.47402046  0.94170063     0.10950
H1074       H  0.45962345  0.00140745  0.53313706     0.10950
C1075       C  0.45555525  0.16289430  0.00343496    -0.15180
C1076       C  0.46725995  0.13725321  0.99087353     0.06970
C1077       C  0.45065278  0.11348867  0.48460558    -0.15180
C1078       C  0.42265204  0.11494282  0.49186898    -0.15180
C1079       C  0.41069108  0.14054140  0.00408810     0.06970
C1080       C  0.42715233  0.16465983  0.00973523    -0.15180
H1081       H  0.46848424  0.18110329  0.00911387     0.10950
H1082       H  0.45965927  0.09316151  0.47611864     0.10950
H1083       H  0.41041418  0.09580198  0.48870234     0.10950
H1084       H  0.41814872  0.18462735  0.01913587     0.10950
C1085       C  0.17790692  0.15702083  0.48281022    -0.15180
C1086       C  0.16020779  0.13561485  0.49430136     0.06970
C1087       C  0.17209101  0.11099832  0.00951588    -0.15180
C1088       C  0.20085459  0.10834572  0.01448751    -0.15180
C1089       C  0.21848757  0.12974084  0.50311409     0.06970
C1090       C  0.20682614  0.15392140  0.48683818    -0.15180
H1091       H  0.16942275  0.17619173  0.47085675     0.10950
H1092       H  0.15912801  0.09354024  0.01708871     0.10950
H1093       H  0.20942649  0.08894642  0.02593437     0.10950
H1094       H  0.22011663  0.17039117  0.47722134     0.10950
C1095       C  0.11886924  0.23324331  0.54136880    -0.15180
C1096       C  0.10323618  0.22624175  0.01357978     0.06970
C1097       C  0.10666067  0.24230396  0.98505566    -0.15180
C1098       C  0.12585644  0.26435022  0.98402375    -0.15180
C1099       C  0.14145895  0.27128185  0.01168266     0.06970
C1100       C  0.13745168  0.25606762  0.54060426    -0.15180
H1101       H  0.11689271  0.22089466  0.56351241     0.10950
H1102       H  0.09532472  0.23708502  0.96310002     0.10950
H1103       H  0.12798847  0.27656392  0.96179018     0.10950
H1104       H  0.14880305  0.26172493  0.56239936     0.10950
O1105       O  0.09531253  0.67829470  0.03011466    -0.81970
O1106       O  0.00815102  0.61529687  0.47105415    -0.81990
O1107       O  0.04184287  0.66914216  0.43708225    -0.82000
O1108       O  0.02609262  0.61382988  0.06761369    -0.81940
O1109       O  0.03832361  0.62281859  0.42289781    -0.82070
O1110       O  0.04712089  0.65503757  0.05797988    -0.81990
O1111       O  0.01115953  0.64184577  0.01348245    -0.81970
O1112       O  0.07026678  0.69557767  0.48916183    -0.82010
C1113       C  0.08753901  0.69933787  0.51211670     1.07720
C1114       C  0.49706000  0.63247460  0.49080175     1.07600
C1115       C  0.03041718  0.64942327  0.42035233     1.07740
C1116       C  0.02904298  0.64049422  0.07411357     1.07620
O1117       O  0.09778610  0.63043796  0.07096440    -0.81970
O1118       O  0.08674719  0.59285780  0.45195774    -0.82050
O1119       O  0.11850863  0.66002952  0.47561793    -0.81980
O1120       O  0.02709836  0.57813043  0.00939005    -0.81960
O1121       O  0.03477724  0.56744341  0.45655809    -0.82020
O1122       O  0.11445629  0.62312981  0.00894460    -0.81980
O1123       O  0.07684210  0.59400367  0.04666930    -0.81940
O1124       O  0.09051051  0.63458742  0.42583160    -0.82010
Co1125     Co  0.08053667  0.63836671  0.03078387     1.51530
Co1126     Co  0.04848522  0.60404906  0.46554552     1.51690
Co1127     Co  0.07905727  0.66416651  0.45833893     1.51570
Co1128     Co  0.04368974  0.61813999  0.02676406     1.51470
O1129       O  0.06185782  0.63621587  0.98850277    -1.43910
C1130       C  0.09330020  0.60356550  0.06912237     1.07650
C1131       C  0.09758398  0.60816514  0.43003613     1.07740
C1132       C  0.12949663  0.63945743  0.99226504     1.07670
C1133       C  0.02462337  0.56084879  0.98416170     1.07650
O1134       O  0.28989080  0.56344775  0.04170792    -0.81970
O1135       O  0.36602578  0.62387028  0.49509159    -0.81990
O1136       O  0.33646730  0.59280374  0.45382758    -0.82000
O1137       O  0.34614640  0.63102450  0.07336306    -0.81940
O1138       O  0.35374567  0.63195491  0.43186725    -0.82070
O1139       O  0.34095755  0.59034509  0.04575256    -0.81990
O1140       O  0.36962081  0.66226190  0.02512332    -0.81970
O1141       O  0.28515771  0.57219530  0.48798663    -0.82010
C1142       C  0.28203266  0.55541720  0.01344761     1.07720
C1143       C  0.38082040  0.64205284  0.50901930     1.07600
C1144       C  0.35255461  0.60466677  0.43249331     1.07740
C1145       C  0.35384814  0.60505460  0.06696455     1.07620
O1146       O  0.29321119  0.61759853  0.07762438    -0.81970
O1147       O  0.30085603  0.65107121  0.44043782    -0.82050
O1148       O  0.26305359  0.63193926  0.48030625    -0.81980
O1149       O  0.31999163  0.69456461  0.01430669    -0.81960
O1150       O  0.34460578  0.67931151  0.47232305    -0.82020
O1151       O  0.26063028  0.61082665  0.02698198    -0.81980
O1152       O  0.29500112  0.66440439  0.06545293    -0.81940
O1153       O  0.28589434  0.60726245  0.42850797    -0.82010
Co1154     Co  0.30163905  0.60103096  0.03341026     1.51530
Co1155     Co  0.33333985  0.63769247  0.47048007     1.51690
Co1156     Co  0.29956908  0.61307364  0.47129759     1.51570
Co1157     Co  0.33119220  0.66193977  0.04298621     1.51470
O1158       O  0.31310304  0.63460563  0.01122027    -1.43910
C1159       C  0.28590706  0.64403187  0.08270932     1.07650
C1160       C  0.28726348  0.63403511  0.42150609     1.07740
C1161       C  0.24889314  0.62457701  0.00401633     1.07670
C1162       C  0.33581171  0.69981372  0.49052719     1.07650
O1163       O  0.15198070  0.81734425  0.03127378    -0.81970
O1164       O  0.23760769  0.88949653  0.46399049    -0.81990
O1165       O  0.20123417  0.83215563  0.43688754    -0.82000
O1166       O  0.21921378  0.87614243  0.06550443    -0.81940
O1167       O  0.22054265  0.87636397  0.44078186    -0.82070
O1168       O  0.20199217  0.83424081  0.05516168    -0.81990
O1169       O  0.24053487  0.88115438  0.01504285    -0.81970
O1170       O  0.17360869  0.80228988  0.48711083    -0.82010
C1171       C  0.15788764  0.79750545  0.51103831     1.07720
C1172       C  0.25241144  0.88300273  0.48861536     1.07600
C1173       C  0.21971190  0.85018331  0.42877999     1.07740
C1174       C  0.21947417  0.84915564  0.07032133     1.07620
O1175       O  0.15543915  0.86260861  0.07581380    -0.81970
O1176       O  0.17523559  0.91007225  0.43974838    -0.82050
O1177       O  0.12759750  0.84202418  0.48070923    -0.81980
O1178       O  0.21751537  0.93262949  0.03149727    -0.81960
O1179       O  0.21375786  0.93745478  0.47768144    -0.82020
O1180       O  0.13589721  0.87585015  0.01605974    -0.81980
O1181       O  0.16715566  0.90451416  0.05260072    -0.81940
O1182       O  0.15342721  0.86921462  0.43230215    -0.82010
Co1183     Co  0.16967430  0.85561917  0.03494367     1.51530
Co1184     Co  0.19847450  0.89776105  0.47781443     1.51690
Co1185     Co  0.16589838  0.83773407  0.46143621     1.51570
Co1186     Co  0.20234705  0.89320974  0.02531656     1.51470
O1187       O  0.18821704  0.85941833  0.49587622    -1.43910
C1188       C  0.15609968  0.89006105  0.07628521     1.07650
C1189       C  0.15699622  0.89536521  0.42552985     1.07740
C1190       C  0.11886327  0.86258040  0.49851221     1.07670
C1191       C  0.22155279  0.94753612  0.50543792     1.07650
O1192       O  0.44455780  0.95069704  0.01346620    -0.81970
O1193       O  0.38078430  0.86793505  0.48040123    -0.81990
O1194       O  0.41970525  0.91564921  0.44042997    -0.82000
O1195       O  0.39785473  0.87380910  0.05606883    -0.81940
O1196       O  0.40504936  0.87244750  0.43138119    -0.82070
O1197       O  0.41506530  0.91873009  0.06211012    -0.81990
O1198       O  0.38166802  0.86167895  0.03179100    -0.81970
O1199       O  0.46765486  0.93579808  0.47000683    -0.82010
C1200       C  0.46061069  0.95589712  0.48978952     1.07720
C1201       C  0.36780938  0.86711400  0.00628782     1.07600
C1202       C  0.40282835  0.89923965  0.42607548     1.07740
C1203       C  0.39773148  0.89929530  0.06970762     1.07620
O1204       O  0.46301161  0.88229122  0.06743792    -0.81970
O1205       O  0.45774329  0.84673609  0.44873762    -0.82050
O1206       O  0.48435877  0.87732641  0.48736476    -0.81980
O1207       O  0.40608855  0.81452662  0.01886950    -0.81960
O1208       O  0.40649629  0.81754224  0.46492229    -0.82020
O1209       O  0.49080236  0.91188959  0.02194973    -0.81980
O1210       O  0.44216479  0.84120883  0.05820513    -0.81940
O1211       O  0.47038404  0.88835490  0.42542682    -0.82010
Co1212     Co  0.45141919  0.91449092  0.03865340     1.51530
Co1213     Co  0.42022033  0.85720320  0.47289262     1.51690
Co1214     Co  0.45185706  0.89630693  0.46448371     1.51570
Co1215     Co  0.42095505  0.85401467  0.01915282     1.51470
O1216       O  0.43106625  0.89275529  0.00197581    -1.43910
C1217       C  0.45940443  0.85599098  0.07375545     1.07650
C1218       C  0.47186816  0.86079814  0.42695447     1.07740
C1219       C  0.50055668  0.89116053  0.00521716     1.07670
C1220       C  0.39991158  0.80388273  0.99094666     1.07650
O1221       O  0.20578121  0.61569057  0.17564038    -0.81970
O1222       O  0.20070680  0.64916532  0.30168738    -0.81990
O1223       O  0.14601159  0.66738562  0.21730720    -0.82000
O1224       O  0.25018084  0.57176563  0.25910780    -0.81940
O1225       O  0.16364868  0.67850414  0.26488986    -0.82070
O1226       O  0.24598428  0.59859265  0.21660809    -0.81990
O1227       O  0.23506040  0.61863007  0.29314821    -0.81970
O1228       O  0.20171026  0.65099878  0.20978875    -0.82010
C1229       C  0.21084453  0.64120113  0.18316911     1.07720
C1230       C  0.22483195  0.63967670  0.30841073     1.07600
C1231       C  0.14871252  0.68591091  0.24029627     1.07740
C1232       C  0.26025173  0.58972686  0.24031713     1.07620
O1233       O  0.21708713  0.54360398  0.22467982    -0.81970
O1234       O  0.14056996  0.63044623  0.28148448    -0.82050
O1235       O  0.15636287  0.61309871  0.18375120    -0.81980
O1236       O  0.18867388  0.58652417  0.31840409    -0.81960
O1237       O  0.16080038  0.62372413  0.30357015    -0.82020
O1238       O  0.17304086  0.56816932  0.18991533    -0.81980
O1239       O  0.20224354  0.54318912  0.27536792    -0.81940
O1240       O  0.13283352  0.61102896  0.23610235    -0.82010
Co1241     Co  0.20931034  0.58227197  0.20483261     1.51530
Co1242     Co  0.17903472  0.63879794  0.26219966     1.51690
Co1243     Co  0.16774535  0.63060044  0.22627369     1.51570
Co1244     Co  0.21665244  0.58175426  0.28418882     1.51470
O1245       O  0.19152442  0.59804437  0.24662593    -1.43910
C1246       C  0.21268935  0.53027799  0.25106123     1.07650
C1247       C  0.12328055  0.61823597  0.26272843     1.07740
C1248       C  0.15635341  0.58623584  0.17646357     1.07670
C1249       C  0.16807159  0.60316844  0.32333119     1.07650
O1250       O  0.41514721  0.59329071  0.19271793    -0.81970
O1251       O  0.44620168  0.58457597  0.32106956    -0.81990
O1252       O  0.47965445  0.57861089  0.22390963    -0.82000
O1253       O  0.38083197  0.64966005  0.27264860    -0.81940
O1254       O  0.44465995  0.56718224  0.25601945    -0.82070
O1255       O  0.38201449  0.61448170  0.23740838    -0.81990
O1256       O  0.40990652  0.61067778  0.30404489    -0.81970
O1257       O  0.45400323  0.60428298  0.17050789    -0.82010
C1258       C  0.43048126  0.59204052  0.16851869     1.07720
C1259       C  0.42103042  0.59292475  0.32478167     1.07600
C1260       C  0.46610638  0.55979310  0.23961507     1.07740
C1261       C  0.36895194  0.62922756  0.25801621     1.07620
O1262       O  0.39530699  0.67334838  0.21986493    -0.81970
O1263       O  0.98940177  0.59817240  0.28043266    -0.82050
O1264       O  0.46690064  0.66075361  0.19960561    -0.81980
O1265       O  0.42114363  0.66594779  0.32014538    -0.81960
O1266       O  0.45893108  0.64014716  0.30618488    -0.82020
O1267       O  0.42959895  0.65213967  0.17131001    -0.81980
O1268       O  0.42676508  0.68483221  0.25667878    -0.81940
O1269       O  0.99596054  0.63474575  0.24843836    -0.82010
Co1270     Co  0.40675084  0.63268510  0.20700019     1.51530
Co1271     Co  0.44797210  0.60406177  0.27975602     1.51690
Co1272     Co  0.47267056  0.62040106  0.21224158     1.51570
Co1273     Co  0.42260015  0.64716653  0.27866326     1.51470
O1274       O  0.43793394  0.62625487  0.23927767    -1.43910
C1275       C  0.40639050  0.69212086  0.23821487     1.07650
C1276       C  0.00548873  0.61644896  0.26856248     1.07740
C1277       C  0.45362906  0.66339333  0.17348763     1.07670
C1278       C  0.44643532  0.65802222  0.32537645     1.07650
O1279       O  0.02834620  0.88139549  0.18331609    -0.81970
O1280       O  0.06415656  0.83998424  0.31415157    -0.81990
O1281       O  0.08184994  0.81074789  0.21750764    -0.82000
O1282       O  0.49425537  0.88083749  0.25993607    -0.81940
O1283       O  0.09572677  0.81407487  0.26898980    -0.82070
O1284       O  0.49842107  0.91519313  0.22398916    -0.81990
O1285       O  0.02377202  0.84908785  0.29657990    -0.81970
O1286       O  0.02889662  0.84067969  0.21148633    -0.82010
C1287       C  0.02149427  0.85509739  0.18643407     1.07720
C1288       C  0.03855872  0.83950432  0.31908861     1.07600
C1289       C  0.09480296  0.79957527  0.24226893     1.07740
C1290       C  0.48488482  0.89499904  0.23627532     1.07620
O1291       O  0.04669511  0.94535993  0.24291050    -0.81970
O1292       O  0.11007577  0.87041210  0.27826717    -0.82050
O1293       O  0.07796749  0.86714672  0.18361246    -0.81980
O1294       O  0.05530839  0.90051180  0.32105350    -0.81960
O1295       O  0.09324880  0.87732429  0.30093388    -0.82020
O1296       O  0.07767073  0.91282262  0.19930827    -0.81980
O1297       O  0.01768603  0.93382030  0.28178424    -0.81940
O1298       O  0.10800773  0.85937284  0.22859548    -0.82010
Co1299     Co  0.03920731  0.91232823  0.21461399     1.51530
Co1300     Co  0.07412129  0.85128131  0.26838044     1.51690
Co1301     Co  0.06702717  0.85033818  0.22673673     1.51570
Co1302     Co  0.02453453  0.89092634  0.28840777     1.51470
O1303       O  0.05232036  0.88623942  0.25201633    -1.43910
C1304       C  0.02785037  0.95255867  0.26285295     1.07650
C1305       C  0.12250853  0.86779723  0.25173700     1.07740
C1306       C  0.08610935  0.89307863  0.18046039     1.07670
C1307       C  0.08165510  0.89479604  0.32161115     1.07650
O1308       O  0.33171721  0.87887974  0.19159695    -0.81970
O1309       O  0.29945607  0.88724856  0.32897716    -0.81990
O1310       O  0.30111761  0.92195454  0.24444737    -0.82000
O1311       O  0.36542655  0.87608407  0.25453153    -0.81940
O1312       O  0.26859723  0.90991428  0.27973299    -0.82070
O1313       O  0.36288257  0.84050928  0.21996139    -0.81990
O1314       O  0.33589838  0.89818523  0.30165030    -0.81970
O1315       O  0.29471183  0.90617270  0.17925650    -0.82010
C1316       C  0.31959847  0.89791456  0.17318849     1.07720
C1317       C  0.32243758  0.90059433  0.32719683     1.07600
C1318       C  0.28130175  0.92883515  0.26355695     1.07740
C1319       C  0.37564794  0.86178235  0.23151283     1.07620
O1320       O  0.31991441  0.80488366  0.24173609    -0.81970
O1321       O  0.25238934  0.85343749  0.25725047    -0.82050
O1322       O  0.28342810  0.84995625  0.19355181    -0.81980
O1323       O  0.32348386  0.84006672  0.32797071    -0.81960
O1324       O  0.28564108  0.82893759  0.30277280    -0.82020
O1325       O  0.32012827  0.82367906  0.17732835    -0.81980
O1326       O  0.35360687  0.81754599  0.27551094    -0.81940
O1327       O  0.25453536  0.89060496  0.22495064    -0.82010
Co1328     Co  0.32125628  0.84244803  0.21875907     1.51530
Co1329     Co  0.27763499  0.86888003  0.29051121     1.51690
Co1330     Co  0.29602200  0.88571727  0.22020987     1.51570
Co1331     Co  0.34325441  0.85840436  0.28834889     1.51470
O1332       O  0.30956338  0.86349850  0.25941639    -1.43910
C1333       C  0.34150882  0.79830346  0.25871019     1.07650
C1334       C  0.24034649  0.87165274  0.23889235     1.07740
C1335       C  0.29493289  0.83233099  0.17313964     1.07670
C1336       C  0.29950475  0.82846302  0.32843280     1.07650
C1337       C  0.43666507  0.90798269  0.21936788    -0.15180
C1338       C  0.45775660  0.88706285  0.22399584     0.06970
C1339       C  0.45147310  0.85759632  0.22394401    -0.15180
C1340       C  0.42418212  0.84892355  0.22068863    -0.15180
C1341       C  0.40283263  0.86985348  0.22016993     0.06970
C1342       C  0.40909686  0.89937844  0.21849673    -0.15180
H1343       H  0.44117497  0.93080247  0.22047471     0.10950
H1344       H  0.46754099  0.84135952  0.22919641     0.10950
H1345       H  0.41962475  0.82619746  0.22313947     0.10950
H1346       H  0.39269534  0.91578837  0.21993418     0.10950
C1347       C  0.16635857  0.89597653  0.25380056    -0.15180
C1348       C  0.15253738  0.87018852  0.24788298     0.06970
C1349       C  0.16732427  0.84599809  0.23586247    -0.15180
C1350       C  0.19592775  0.84699606  0.23125135    -0.15180
C1351       C  0.20996252  0.87250867  0.23759894     0.06970
C1352       C  0.19506607  0.89721246  0.24834830    -0.15180
H1353       H  0.15502224  0.91497274  0.26236893     0.10950
H1354       H  0.15675592  0.82603770  0.23081259     0.10950
H1355       H  0.20723611  0.82769436  0.22344290     0.10950
H1356       H  0.20585662  0.91691534  0.25396079     0.10950
C1357       C  0.47281156  0.51280013  0.26989060    -0.15180
C1358       C  0.47964964  0.53079204  0.24380796     0.06970
C1359       C  0.00334872  0.52348655  0.22537835    -0.15180
C1360       C  0.01996007  0.49916643  0.23297253    -0.15180
C1361       C  0.01325994  0.98112804  0.25904638     0.06970
C1362       C  0.48937620  0.98819659  0.27735350    -0.15180
H1363       H  0.45512026  0.51813811  0.28506659     0.10950
H1364       H  0.00951593  0.53700729  0.20535966     0.10950
H1365       H  0.03775578  0.49415384  0.21783244     0.10950
H1366       H  0.48322818  0.97447323  0.29718746     0.10950
C1367       C  0.39528286  0.73725031  0.27026445    -0.15180
C1368       C  0.39147573  0.72059083  0.24215968     0.06970
C1369       C  0.36986026  0.72893213  0.22046106    -0.15180
C1370       C  0.35255818  0.75319218  0.22667954    -0.15180
C1371       C  0.35635352  0.76981971  0.25479861     0.06970
C1372       C  0.37800750  0.76152798  0.27645455    -0.15180
H1373       H  0.41119607  0.73113315  0.28791966     0.10950
H1374       H  0.36605687  0.71643289  0.19875816     0.10950
H1375       H  0.33666776  0.75935714  0.20901594     0.10950
H1376       H  0.38182158  0.77406340  0.29813304     0.10950
C1377       C  0.23875749  0.98872014  0.22735539    -0.15180
C1378       C  0.22708556  0.00202428  0.25492596     0.06970
C1379       C  0.23534462  0.99212271  0.28583693    -0.15180
C1380       C  0.25509024  0.96954999  0.28895094    -0.15180
C1381       C  0.26728564  0.95707787  0.26128689     0.06970
C1382       C  0.25893578  0.96680355  0.23052430    -0.15180
H1383       H  0.23296952  0.99594645  0.20318238     0.10950
H1384       H  0.22723952  0.50235534  0.30752276     0.10950
H1385       H  0.26051075  0.96141365  0.31288434     0.10950
H1386       H  0.26697644  0.95644267  0.20886934     0.10950
C1387       C  0.11727513  0.72407829  0.21393495    -0.15180
C1388       C  0.13511954  0.71511670  0.23944157     0.06970
C1389       C  0.13989002  0.73439525  0.26513536    -0.15180
C1390       C  0.12694029  0.76171053  0.26567904    -0.15180
C1391       C  0.10886532  0.77068047  0.24049585     0.06970
C1392       C  0.10430134  0.75168816  0.21442133    -0.15180
H1393       H  0.11319784  0.70972640  0.19382174     0.10950
H1394       H  0.15359829  0.72833988  0.28513579     0.10950
H1395       H  0.13111661  0.77582970  0.28598900     0.10950
H1396       H  0.09044724  0.75801113  0.19466436     0.10950
C1397       C  0.30846894  0.58200711  0.25948717    -0.15180
C1398       C  0.28761832  0.60096434  0.24777172     0.06970
C1399       C  0.29240144  0.63073922  0.24621684    -0.15180
C1400       C  0.31872304  0.64117325  0.25380722    -0.15180
C1401       C  0.34016487  0.62173560  0.26305614     0.06970
C1402       C  0.33467194  0.59227469  0.26665842    -0.15180
H1403       H  0.30484581  0.55905494  0.26161102     0.10950
H1404       H  0.27580010  0.64577695  0.23938733     0.10950
H1405       H  0.32284392  0.66387662  0.25021172     0.10950
H1406       H  0.35130574  0.57682816  0.27250326     0.10950
C1407       C  0.07903266  0.59301735  0.25326254    -0.15180
C1408       C  0.09389840  0.61377001  0.27059658     0.06970
C1409       C  0.07949048  0.63308549  0.29117629    -0.15180
C1410       C  0.05032113  0.63316265  0.29219613    -0.15180
C1411       C  0.03559213  0.61341630  0.27332417     0.06970
C1412       C  0.05008891  0.59272126  0.25482177    -0.15180
H1413       H  0.08970654  0.57796232  0.23721874     0.10950
H1414       H  0.09059434  0.64939377  0.30453993     0.10950
H1415       H  0.03926470  0.64936206  0.30641992     0.10950
H1416       H  0.03890592  0.57751550  0.23993426     0.10950
C1417       C  0.01970191  0.85395777  0.40514142    -0.15180
C1418       C  0.49163682  0.84591488  0.40506026     0.06970
C1419       C  0.48152248  0.82960886  0.37911418    -0.15180
C1420       C  0.49833266  0.82424613  0.35205599    -0.15180
C1421       C  0.02570052  0.83447425  0.35095706     0.06970
C1422       C  0.03683479  0.84760153  0.37862949    -0.15180
H1423       H  0.02771003  0.86727003  0.42447930     0.10950
H1424       H  0.45981740  0.82374603  0.37823269     0.10950
H1425       H  0.48915611  0.81440092  0.33081313     0.10950
H1426       H  0.05768541  0.85594674  0.37825347     0.10950
C1427       C  0.00549294  0.84947113  0.09916061    -0.15180
C1428       C  0.47705815  0.84341013  0.09979059     0.06970
C1429       C  0.46570327  0.83214241  0.12828408    -0.14940
C1430       C  0.48186226  0.83089428  0.15694695    -0.15180
C1431       C  0.00890877  0.84187839  0.15728512     0.06970
C1432       C  0.02124856  0.84866625  0.12758303    -0.15180
H1433       H  0.01478614  0.85787070  0.07733746     0.10950
H1434       H  0.44383310  0.82701505  0.12918670     0.10950
H1435       H  0.47240304  0.82374178  0.17897455     0.10950
H1436       H  0.04226577  0.85669332  0.12695447     0.10950
C1437       C  0.35244313  0.90089474  0.41085049    -0.15180
C1438       C  0.37974323  0.90979756  0.40465001     0.06970
C1439       C  0.38500501  0.92339692  0.37511856    -0.15180
C1440       C  0.36431448  0.92445382  0.35081139    -0.15180
C1441       C  0.33794159  0.91213380  0.35575653     0.06970
C1442       C  0.33140916  0.90330192  0.38713737    -0.15180
H1443       H  0.34788641  0.88996603  0.43318339     0.10950
H1444       H  0.40579925  0.93039142  0.36959612     0.10950
H1445       H  0.37000235  0.93213809  0.32702148     0.10950
H1446       H  0.31093887  0.89545601  0.39234887     0.10950
C1447       C  0.34782959  0.89781894  0.08877006    -0.15180
C1448       C  0.37559904  0.90592599  0.09417136     0.06970
C1449       C  0.38249472  0.91749715  0.12458951    -0.15180
C1450       C  0.36283596  0.91825537  0.14972684    -0.15180
C1451       C  0.33570199  0.90812562  0.14492593     0.06970
C1452       C  0.32802299  0.89935073  0.11365902    -0.15180
H1453       H  0.34159383  0.88913898  0.06573600     0.10950
H1454       H  0.40362460  0.92395278  0.12966779     0.10950
H1455       H  0.36922986  0.92525037  0.17350767     0.10950
H1456       H  0.30738140  0.89126526  0.10918109     0.10950
C1457       C  0.25584586  0.81425283  0.35675177    -0.15180
C1458       C  0.28314582  0.82491906  0.35885677     0.06970
C1459       C  0.29039930  0.84008767  0.38692239    -0.15180
C1460       C  0.26990851  0.84859243  0.40942694    -0.15180
C1461       C  0.24205317  0.84007235  0.40590153     0.06970
C1462       C  0.23572335  0.82142175  0.38015588    -0.15180
H1463       H  0.24938099  0.80221033  0.33559851     0.10950
H1464       H  0.31145882  0.84734809  0.39003851     0.10950
H1465       H  0.27590080  0.86240623  0.42899639     0.10950
H1466       H  0.21469094  0.81390483  0.37690194     0.10950
C1467       C  0.23058711  0.82469039  0.12289506    -0.15180
C1468       C  0.23973080  0.83611132  0.09349273     0.06970
C1469       C  0.26842553  0.83937957  0.08873797    -0.15180
C1470       C  0.28758208  0.83303162  0.11372795    -0.15180
C1471       C  0.27812946  0.82487364  0.14438794     0.06970
C1472       C  0.24960624  0.81953299  0.14833714    -0.15180
H1473       H  0.20852129  0.82239525  0.12721279     0.10950
H1474       H  0.27583553  0.84863634  0.06645225     0.10950
H1475       H  0.30932771  0.83781802  0.11024535     0.10950
H1476       H  0.24172825  0.81388127  0.17198072     0.10950
C1477       C  0.12895836  0.90768149  0.34216119    -0.15180
C1478       C  0.10008105  0.90596124  0.34772259     0.06970
C1479       C  0.09049806  0.90875885  0.37964574    -0.15180
C1480       C  0.10960350  0.90914820  0.40560454    -0.15180
C1481       C  0.13851641  0.90763676  0.40000156     0.06970
C1482       C  0.14799144  0.90849966  0.36804613    -0.15180
H1483       H  0.13703931  0.90590759  0.31784599     0.10950
H1484       H  0.06847128  0.90756033  0.38478309     0.10950
H1485       H  0.10182667  0.90784438  0.43013039     0.10950
H1486       H  0.17009800  0.90667913  0.36308750     0.10950
C1487       C  0.15244436  0.89468607  0.13440583    -0.15180
C1488       C  0.14265593  0.90382183  0.10383644     0.06970
C1489       C  0.11527008  0.91459766  0.10035294    -0.15180
C1490       C  0.09687143  0.91273134  0.12629151    -0.15180
C1491       C  0.10599728  0.90006480  0.15549908     0.06970
C1492       C  0.13407922  0.89247285  0.16005445    -0.15180
H1493       H  0.17344314  0.88578185  0.13729090     0.10950
H1494       H  0.10736013  0.92135839  0.07688529     0.10950
H1495       H  0.07515654  0.91903023  0.12281451     0.10950
H1496       H  0.14140761  0.88307799  0.18264861     0.10950
C1497       C  0.29256745  0.85180902  0.00213482    -0.15180
C1498       C  0.28209778  0.87763352  0.48837497     0.06970
C1499       C  0.29960522  0.90077835  0.48308815    -0.15180
C1500       C  0.32760796  0.89808359  0.49165803    -0.15180
C1501       C  0.33807846  0.87220716  0.00524412     0.06970
C1502       C  0.32058396  0.84906350  0.01053227    -0.15180
H1503       H  0.27883965  0.83412869  0.00713503     0.10950
H1504       H  0.29139308  0.92117421  0.47365670     0.10950
H1505       H  0.34130483  0.91584794  0.48694654     0.10950
H1506       H  0.32875261  0.82873587  0.02018428     0.10950
C1507       C  0.07917854  0.89589195  0.01502416    -0.15180
C1508       C  0.08862261  0.87008893  0.50016703     0.06970
C1509       C  0.06878476  0.85108246  0.98783953    -0.15180
C1510       C  0.04028005  0.85767647  0.99035424    -0.15180
C1511       C  0.03081805  0.88357156  0.00498248     0.06970
C1512       C  0.05060164  0.90251779  0.01755255    -0.15180
H1513       H  0.09397271  0.91118033  0.52420595     0.10950
H1514       H  0.07531183  0.83094251  0.47646365     0.10950
H1515       H  0.02559180  0.84250150  0.98057208     0.10950
H1516       H  0.04402651  0.92272972  0.02869356     0.10950
C1517       C  0.28547228  0.64699233  0.36369326    -0.15180
C1518       C  0.27194220  0.64534188  0.39347234     0.06970
C1519       C  0.24293810  0.64928182  0.39499761    -0.15180
C1520       C  0.22726923  0.65218647  0.36644866    -0.15180
C1521       C  0.24056601  0.65020546  0.33635845     0.06970
C1522       C  0.26981767  0.64933823  0.33517938    -0.15180
H1523       H  0.30787567  0.64377956  0.36230615     0.10950
H1524       H  0.23231570  0.64779220  0.41797646     0.10950
H1525       H  0.20473398  0.65245889  0.36782546     0.10950
H1526       H  0.28039678  0.64758271  0.31218331     0.10950
C1527       C  0.23741723  0.65164083  0.10171766    -0.15180
C1528       C  0.26601229  0.65126805  0.10855016     0.06970
C1529       C  0.27519062  0.65713935  0.14020701    -0.15180
C1530       C  0.25587799  0.66014599  0.16544153    -0.15180
C1531       C  0.22732175  0.65691262  0.15930732     0.06970
C1532       C  0.21823277  0.65477650  0.12683918    -0.15180
H1533       H  0.22995893  0.64766804  0.07729777     0.10950
H1534       H  0.29728067  0.65757947  0.14572412     0.10950
H1535       H  0.26346033  0.66165673  0.19001147     0.10950
H1536       H  0.19637828  0.65162220  0.12140605     0.10950
C1537       C  0.39793405  0.58468624  0.41144545    -0.15180
C1538       C  0.36886391  0.58842313  0.40787837     0.06970
C1539       C  0.35733325  0.58695778  0.37661304    -0.15180
C1540       C  0.37454206  0.58503575  0.34944052    -0.15180
C1541       C  0.40375354  0.58415557  0.35276699     0.06970
C1542       C  0.41524440  0.58214378  0.38414509    -0.15180
H1543       H  0.40751923  0.58645151  0.43501069     0.10950
H1544       H  0.33514177  0.59070338  0.37294621     0.10950
H1545       H  0.36501958  0.58697164  0.32572484     0.10950
H1546       H  0.43764521  0.58193554  0.38760625     0.10950
C1547       C  0.40436688  0.60199125  0.08345813    -0.15180
C1548       C  0.37703677  0.59203811  0.08658054     0.06970
C1549       C  0.37095175  0.57465819  0.11328035    -0.15180
C1550       C  0.39059719  0.57060243  0.13835443    -0.15180
C1551       C  0.41676091  0.58390915  0.13726694     0.06970
C1552       C  0.42433659  0.59708916  0.10814354    -0.15180
H1553       H  0.40974939  0.61538012  0.06315628     0.10950
H1554       H  0.35008843  0.56675529  0.11638895     0.10950
H1555       H  0.38409870  0.55978715  0.16022072     0.10950
H1556       H  0.44467058  0.60624542  0.10590667     0.10950
C1557       C  0.25510939  0.51849765  0.98112649    -0.15180
C1558       C  0.26743283  0.52728967  0.01048108     0.06970
C1559       C  0.26414757  0.00969300  0.53803629    -0.15180
C1560       C  0.24889186  0.98428486  0.53643748    -0.15180
C1561       C  0.23645309  0.97551167  0.50721387     0.06970
C1562       C  0.23990200  0.49288912  0.47949252    -0.15180
H1563       H  0.25698328  0.53153499  0.95947789     0.10950
H1564       H  0.27320782  0.01565327  0.56112905     0.10950
H1565       H  0.24704909  0.97136018  0.55817790     0.10950
H1566       H  0.23082130  0.48670884  0.45648371     0.10950
C1567       C  0.36541196  0.73545540  0.46116048    -0.15180
C1568       C  0.34877231  0.72852419  0.98794073     0.06970
C1569       C  0.34873069  0.74703117  0.01492417    -0.15180
C1570       C  0.36578523  0.77102585  0.01579725    -0.15180
C1571       C  0.38295642  0.77756874  0.98947446     0.06970
C1572       C  0.38206778  0.75999371  0.46174905    -0.15180
H1573       H  0.36614016  0.72146393  0.44013467     0.10950
H1574       H  0.33651092  0.74224078  0.03612423     0.10950
H1575       H  0.36546085  0.78456454  0.03721363     0.10950
H1576       H  0.39473912  0.76479665  0.44092872     0.10950
C1577       C  0.01026091  0.67536356  0.37188435    -0.15180
C1578       C  0.00675807  0.65719185  0.39868013     0.06970
C1579       C  0.48050948  0.64545188  0.40407532    -0.15180
C1580       C  0.45845661  0.65068506  0.38237393    -0.15180
C1581       C  0.46262956  0.66648721  0.35394716     0.06970
C1582       C  0.98850538  0.67947470  0.34928907    -0.15180
H1583       H  0.03036952  0.68454565  0.36718593     0.10950
H1584       H  0.47726928  0.63109941  0.42420872     0.10950
H1585       H  0.43913248  0.63955020  0.38589182     0.10950
H1586       H  0.99261306  0.69068379  0.32682823     0.10950
C1587       C  0.46089438  0.66100237  0.11366439    -0.15180
C1588       C  0.47014476  0.67014475  0.14421244     0.06970
C1589       C  0.99864426  0.67652382  0.14809667    -0.15180
C1590       C  0.01795997  0.66899522  0.12406722    -0.15180
C1591       C  0.00900552  0.65505837  0.09593354     0.06970
C1592       C  0.48027124  0.65266657  0.09002834    -0.15180
H1593       H  0.43904424  0.65700579  0.10942773     0.10950
H1594       H  0.00650058  0.68426215  0.17111119     0.10950
H1595       H  0.03999622  0.67161786  0.12874597     0.10950
H1596       H  0.47290535  0.64263885  0.06796268     0.10950
C1597       C  0.12301432  0.59138521  0.34830784    -0.15180
C1598       C  0.15114747  0.59795263  0.35200651     0.06970
C1599       C  0.16267897  0.60036038  0.38321759    -0.15180
C1600       C  0.14538781  0.59961499  0.41031144    -0.15180
C1601       C  0.11667565  0.59579026  0.40626308     0.06970
C1602       C  0.10583149  0.59035004  0.37529183    -0.15180
H1603       H  0.11414915  0.58810447  0.32451633     0.10950
H1604       H  0.18456874  0.60482126  0.38645802     0.10950
H1605       H  0.15395640  0.60453518  0.43396033     0.10950
H1606       H  0.08360878  0.58798729  0.37168781     0.10950
C1607       C  0.09446477  0.58078224  0.12260681    -0.15180
C1608       C  0.10741604  0.58466903  0.09262491     0.06970
C1609       C  0.13638845  0.58117417  0.09041019    -0.15180
C1610       C  0.15253225  0.57738151  0.11833853    -0.15180
C1611       C  0.13975018  0.57749562  0.14868412     0.06970
C1612       C  0.11065349  0.57757585  0.15074394    -0.15180
H1613       H  0.07215531  0.58424445  0.12483462     0.10950
H1614       H  0.14673046  0.58498982  0.06779834     0.10950
H1615       H  0.17503770  0.57801166  0.11653125     0.10950
H1616       H  0.10060891  0.57822258  0.17414557     0.10950
C1617       C  0.48960304  0.52945158  0.01206647    -0.15180
C1618       C  0.00795655  0.53416613  0.98626754     0.06970
C1619       C  0.00898423  0.01389926  0.46086693    -0.15180
C1620       C  0.49258921  0.98936769  0.46141448    -0.15180
C1621       C  0.47450998  0.98427700  0.98734189     0.06970
C1622       C  0.47302644  0.50478580  0.01257910    -0.15180
H1623       H  0.48796375  0.54485700  0.03175427     0.10950
H1624       H  0.02269203  0.01685036  0.44048044     0.10950
H1625       H  0.49456290  0.97401860  0.44170437     0.10950
H1626       H  0.45960731  0.50141266  0.03313352     0.10950
C1627       C  0.45555629  0.66290069  0.50343569    -0.15180
C1628       C  0.46726125  0.63725885  0.49087649     0.06970
C1629       C  0.45064971  0.61348364  0.98460253    -0.15180
C1630       C  0.42264910  0.61493752  0.99186674    -0.15180
C1631       C  0.41069206  0.64054782  0.50408902     0.06970
C1632       C  0.42715318  0.66466662  0.50973486    -0.15180
H1633       H  0.46848515  0.68111010  0.50911330     0.10950
H1634       H  0.45965585  0.59315699  0.97611361     0.10950
H1635       H  0.41041097  0.59579708  0.98869844     0.10950
H1636       H  0.41814927  0.68463475  0.51913356     0.10950
C1637       C  0.17790360  0.65701734  0.98281185    -0.15180
C1638       C  0.16020472  0.63561030  0.99430105     0.06970
C1639       C  0.17209248  0.61100407  0.50951892    -0.15180
C1640       C  0.20085601  0.60835150  0.51449056    -0.15180
C1641       C  0.21848455  0.62973682  0.00311407     0.06970
C1642       C  0.20682286  0.65391814  0.98683982    -0.15180
H1643       H  0.16941918  0.67618893  0.97086001     0.10950
H1644       H  0.15912933  0.59354684  0.51709363     0.10950
H1645       H  0.20942779  0.58895282  0.52593883     0.10950
H1646       H  0.22011317  0.67038876  0.97722449     0.10950
C1647       C  0.11885378  0.73324505  0.04137120    -0.15180
C1648       C  0.10324726  0.72624406  0.51357922     0.06970
C1649       C  0.10667228  0.74230655  0.48505535    -0.15180
C1650       C  0.12587237  0.76434890  0.48402207    -0.15180
C1651       C  0.14147897  0.77127619  0.51167937     0.06970
C1652       C  0.13743203  0.75607319  0.04060790    -0.15180
H1653       H  0.11687722  0.72089683  0.06351509     0.10950
H1654       H  0.09533307  0.73709087  0.46310097     0.10950
H1655       H  0.12800426  0.77656340  0.46178904     0.10950
H1656       H  0.14878050  0.76173347  0.06240401     0.10950
O1657       O  0.09531701  0.67829921  0.53011542    -0.81970
O1658       O  0.00814909  0.61529060  0.97105282    -0.81990
O1659       O  0.04184047  0.66913442  0.93708108    -0.82000
O1660       O  0.02609550  0.61383599  0.56761452    -0.81940
O1661       O  0.03832193  0.62281087  0.92289678    -0.82070
O1662       O  0.04712452  0.65504337  0.55798100    -0.81990
O1663       O  0.01116172  0.64185198  0.51348383    -0.81970
O1664       O  0.07026129  0.69557069  0.98916069    -0.82010
C1665       C  0.08753242  0.69933272  0.01211611     1.07720
C1666       C  0.49705799  0.63246853  0.99080015     1.07600
C1667       C  0.03041514  0.64941541  0.92035123     1.07740
C1668       C  0.02904662  0.64050018  0.57411489     1.07620
O1669       O  0.09778939  0.63044202  0.57096433    -0.81970
O1670       O  0.08674534  0.59285071  0.95195696    -0.82050
O1671       O  0.11850567  0.66002480  0.97561843    -0.81980
O1672       O  0.02710170  0.57813609  0.50939027    -0.81960
O1673       O  0.03477477  0.56743645  0.95655833    -0.82020
O1674       O  0.11445843  0.62313454  0.50894401    -0.81980
O1675       O  0.07684412  0.59400903  0.54666852    -0.81940
O1676       O  0.09050932  0.63458088  0.92583176    -0.82010
Co1677     Co  0.08053954  0.63837206  0.53078416     1.51530
Co1678     Co  0.04848328  0.60404209  0.96554489     1.51690
Co1679     Co  0.07905440  0.66415998  0.95833847     1.51570
Co1680     Co  0.04369206  0.61814613  0.52676450     1.51470
O1681       O  0.06185989  0.63622275  0.48850344    -1.43910
C1682       C  0.09330198  0.60356988  0.56912220     1.07650
C1683       C  0.09758258  0.60815844  0.93003588     1.07740
C1684       C  0.12949913  0.63946209  0.49226481     1.07670
C1685       C  0.02462736  0.56085445  0.48416179     1.07650
O1686       O  0.28989394  0.56345284  0.54170926    -0.81970
O1687       O  0.36602395  0.62386430  0.99509194    -0.81990
O1688       O  0.33646493  0.59279931  0.95382592    -0.82000
O1689       O  0.34614852  0.63103100  0.57336260    -0.81940
O1690       O  0.35374441  0.63195087  0.93186769    -0.82070
O1691       O  0.34096005  0.59035135  0.54575245    -0.81990
O1692       O  0.36962228  0.66226828  0.52512242    -0.81970
O1693       O  0.28515434  0.57219133  0.98798545    -0.82010
C1694       C  0.28203666  0.55542132  0.51344900     1.07720
C1695       C  0.38081876  0.64204650  0.00901992     1.07600
C1696       C  0.35255246  0.60466277  0.93249205     1.07740
C1697       C  0.35385080  0.60506129  0.56696387     1.07620
O1698       O  0.29321360  0.61760435  0.57762477    -0.81970
O1699       O  0.30085505  0.65106755  0.94043863    -0.82050
O1700       O  0.26305174  0.63193573  0.98030630    -0.81980
O1701       O  0.31999331  0.69457042  0.51430529    -0.81960
O1702       O  0.34460486  0.67930679  0.97232473    -0.82020
O1703       O  0.26063251  0.61083127  0.52698264    -0.81980
O1704       O  0.29500273  0.66441024  0.56545297    -0.81940
O1705       O  0.28589210  0.60725944  0.92850757    -0.82010
Co1706     Co  0.30164133  0.60103637  0.53341075     1.51530
Co1707     Co  0.33333855  0.63768769  0.97048056     1.51690
Co1708     Co  0.29956699  0.61306948  0.97129715     1.51570
Co1709     Co  0.33119382  0.66194587  0.54298555     1.51470
O1710       O  0.31310461  0.63461105  0.51122012    -1.43910
C1711       C  0.28590894  0.64403758  0.58270955     1.07650
C1712       C  0.28726203  0.63403221  0.92150652     1.07740
C1713       C  0.24889524  0.62458114  0.50401673     1.07670
C1714       C  0.33581000  0.69980865  0.99052893     1.07650
O1715       O  0.15200312  0.81733715  0.53127190    -0.81970
O1716       O  0.23758986  0.88949744  0.96399214    -0.81990
O1717       O  0.20121104  0.83216059  0.93688773    -0.82000
O1718       O  0.21923564  0.87613622  0.56550170    -0.81940
O1719       O  0.22052390  0.87636660  0.94078369    -0.82070
O1720       O  0.20201553  0.83423399  0.55515786    -0.81990
O1721       O  0.24055360  0.88115299  0.51504108    -0.81970
O1722       O  0.17358643  0.80229644  0.98711262    -0.82010
C1723       C  0.15786583  0.79751215  0.01104062     1.07720
C1724       C  0.25239316  0.88300339  0.98861729     1.07600
C1725       C  0.21969012  0.85018672  0.92878045     1.07740
C1726       C  0.21949756  0.84914911  0.57031709     1.07620
O1727       O  0.15546193  0.86259760  0.57581361    -0.81970
O1728       O  0.17522058  0.91007700  0.93974886    -0.82050
O1729       O  0.12757594  0.84203059  0.98071124    -0.81980
O1730       O  0.21753129  0.93262591  0.53149713    -0.81960
O1731       O  0.21374292  0.93745760  0.97768160    -0.82020
O1732       O  0.13591828  0.87584203  0.51606053    -0.81980
O1733       O  0.16717444  0.90450567  0.55260400    -0.81940
O1734       O  0.15340604  0.86922254  0.93230543    -0.82010
Co1735     Co  0.16969636  0.85561178  0.53494251     1.51530
Co1736     Co  0.19845712  0.89776505  0.97781600     1.51690
Co1737     Co  0.16587643  0.83774051  0.96143799     1.51570
Co1738     Co  0.20236536  0.89320496  0.52531642     1.51470
O1739       O  0.18819658  0.85942319  0.99587797    -1.43910
C1740       C  0.15611994  0.89005001  0.57628755     1.07650
C1741       C  0.15697875  0.89537226  0.92553180     1.07740
C1742       C  0.11884191  0.86258782  0.99851259     1.07670
C1743       C  0.22153828  0.94753885  0.00543786     1.07650
O1744       O  0.44457965  0.95069000  0.51347226    -0.81970
O1745       O  0.38076686  0.86793404  0.98040093    -0.81990
O1746       O  0.41968099  0.91565321  0.94042888    -0.82000
O1747       O  0.39787350  0.87380194  0.55606969    -0.81940
O1748       O  0.40502791  0.87245004  0.93138199    -0.82070
O1749       O  0.41508659  0.91872139  0.56211466    -0.81990
O1750       O  0.38168518  0.86167541  0.53179060    -0.81970
O1751       O  0.46763247  0.93580388  0.97000135    -0.82010
C1752       C  0.46058955  0.95590319  0.98978394     1.07720
C1753       C  0.36782678  0.86711352  0.50628806     1.07600
C1754       C  0.40280388  0.89924220  0.92607691     1.07740
C1755       C  0.39775201  0.89928698  0.56971098     1.07620
O1756       O  0.46303147  0.88227990  0.56743775    -0.81970
O1757       O  0.45772604  0.84674275  0.94873242    -0.82050
O1758       O  0.48433860  0.87733454  0.98735950    -0.81980
O1759       O  0.40610275  0.81452249  0.51886740    -0.81960
O1760       O  0.40648322  0.81754409  0.96492384    -0.82020
O1761       O  0.49082360  0.91188180  0.52195350    -0.81980
O1762       O  0.44218290  0.84119940  0.55819911    -0.81940
O1763       O  0.47036114  0.88836303  0.92542147    -0.82010
Co1764     Co  0.45144014  0.91448242  0.53865695     1.51530
Co1765     Co  0.42020377  0.85720653  0.97289153     1.51690
Co1766     Co  0.45183515  0.89631288  0.96448001     1.51570
Co1767     Co  0.42097135  0.85400922  0.51915051     1.51470
O1768       O  0.43108602  0.89275025  0.50197758    -1.43910
C1769       C  0.45942329  0.85597906  0.57375103     1.07650
C1770       C  0.47184839  0.86080648  0.92694834     1.07740
C1771       C  0.50057765  0.89115254  0.50522114     1.07670
C1772       C  0.39992398  0.80388034  0.49094447     1.07650
O1773       O  0.20577984  0.61569284  0.67563984    -0.81970
O1774       O  0.20070590  0.64916387  0.80168936    -0.81990
O1775       O  0.14601212  0.66738769  0.71731021    -0.82000
O1776       O  0.25018118  0.57176691  0.75910592    -0.81940
O1777       O  0.16364771  0.67850340  0.76489448    -0.82070
O1778       O  0.24598365  0.59859478  0.71660691    -0.81990
O1779       O  0.23506023  0.61863002  0.79314833    -0.81970
O1780       O  0.20171074  0.65100016  0.70978932    -0.82010
C1781       C  0.21084420  0.64120300  0.68316900     1.07720
C1782       C  0.22483138  0.63967591  0.80841176     1.07600
C1783       C  0.14871215  0.68591150  0.74030098     1.07740
C1784       C  0.26025153  0.58972868  0.74031546     1.07620
O1785       O  0.21708747  0.54360559  0.72467721    -0.81970
O1786       O  0.14056966  0.63044484  0.78148665    -0.82050
O1787       O  0.15636183  0.61310077  0.68375235    -0.81980
O1788       O  0.18867452  0.58652215  0.81840389    -0.81960
O1789       O  0.16079995  0.62372167  0.80357150    -0.82020
O1790       O  0.17304047  0.56817127  0.68991443    -0.81980
O1791       O  0.20224451  0.54318899  0.77536555    -0.81940
O1792       O  0.13283309  0.61103089  0.73610286    -0.82010
Co1793     Co  0.20930986  0.58227391  0.70483147     1.51530
Co1794     Co  0.17903392  0.63879757  0.76220164     1.51690
Co1795     Co  0.16774554  0.63060197  0.72627471     1.51570
Co1796     Co  0.21665283  0.58175411  0.78418775     1.51470
O1797       O  0.19152413  0.59804487  0.74662571    -1.43910
C1798       C  0.21268992  0.53027874  0.75105807     1.07650
C1799       C  0.12328011  0.61823614  0.76272954     1.07740
C1800       C  0.15635224  0.58623797  0.67646420     1.07670
C1801       C  0.16807166  0.60316552  0.82333171     1.07650
O1802       O  0.41514927  0.59329692  0.69271406    -0.81970
O1803       O  0.44619862  0.58457461  0.82106579    -0.81990
O1804       O  0.47965583  0.57861641  0.72390667    -0.82000
O1805       O  0.38083153  0.64966237  0.77264635    -0.81940
O1806       O  0.44466011  0.56718505  0.75601355    -0.82070
O1807       O  0.38201469  0.61448604  0.73740361    -0.81990
O1808       O  0.40990450  0.61067818  0.80404168    -0.81970
O1809       O  0.45400613  0.60429038  0.67050649    -0.82010
C1810       C  0.43048452  0.59204731  0.66851584     1.07720
C1811       C  0.42102753  0.59292409  0.82477798     1.07600
C1812       C  0.46610697  0.55979738  0.73960906     1.07740
C1813       C  0.36895182  0.62923064  0.75801228     1.07620
O1814       O  0.39530882  0.67335330  0.71986507    -0.81970
O1815       O  0.98940073  0.59817391  0.78043188    -0.82050
O1816       O  0.46690217  0.66076006  0.69960832    -0.81980
O1817       O  0.42114116  0.66594735  0.82014600    -0.81960
O1818       O  0.45892881  0.64014655  0.80618615    -0.82020
O1819       O  0.42960201  0.65214672  0.67130998    -0.81980
O1820       O  0.42676579  0.68483471  0.75668123    -0.81940
O1821       O  0.99596048  0.63474952  0.74844100    -0.82010
Co1822     Co  0.40675257  0.63269069  0.70699805     1.51530
Co1823     Co  0.44797094  0.60406291  0.77975367     1.51690
Co1824     Co  0.47267202  0.62040690  0.71224181     1.51570
Co1825     Co  0.42259943  0.64716812  0.77866294     1.51470
O1826       O  0.43793444  0.62625857  0.73927666    -1.43910
C1827       C  0.40639172  0.69212453  0.73821719     1.07650
C1828       C  0.00548813  0.61645118  0.76856375     1.07740
C1829       C  0.45363210  0.66340018  0.67348938     1.07670
C1830       C  0.44643246  0.65802092  0.82537799     1.07650
O1831       O  0.02835219  0.88138900  0.68330820    -0.81970
O1832       O  0.06414947  0.83999171  0.81415284    -0.81990
O1833       O  0.08185249  0.81074758  0.71751257    -0.82000
O1834       O  0.49425594  0.88084064  0.75992152    -0.81940
O1835       O  0.09572454  0.81407642  0.76899623    -0.82070
O1836       O  0.49842363  0.91519375  0.72397207    -0.81990
O1837       O  0.02376805  0.84909362  0.79657147    -0.81970
O1838       O  0.02890073  0.84067760  0.71148614    -0.82010
C1839       C  0.02150098  0.85509100  0.68643015     1.07720
C1840       C  0.03855071  0.83951290  0.81908503     1.07600
C1841       C  0.09480280  0.79957569  0.74227589     1.07740
C1842       C  0.48488583  0.89500221  0.73626076     1.07620
O1843       O  0.04669509  0.94536285  0.74289295    -0.81970
O1844       O  0.11007569  0.87041370  0.77826976    -0.82050
O1845       O  0.07797366  0.86714147  0.68361091    -0.81980
O1846       O  0.05530270  0.90051884  0.82104435    -0.81960
O1847       O  0.09324551  0.87732977  0.80093274    -0.82020
O1848       O  0.07767500  0.91281965  0.69929834    -0.81980
O1849       O  0.01768593  0.93382430  0.78176775    -0.81940
O1850       O  0.10800963  0.85937317  0.72859826    -0.82010
Co1851     Co  0.03921055  0.91232654  0.71460156     1.51530
Co1852     Co  0.07412023  0.85128406  0.76838111     1.51690
Co1853     Co  0.06702999  0.85033819  0.72673674     1.51570
Co1854     Co  0.02453232  0.89093124  0.78839580     1.51470
O1855       O  0.05232192  0.88624202  0.75200944    -1.43910
C1856       C  0.02785069  0.95256196  0.76283597     1.07650
C1857       C  0.12250966  0.86779752  0.75174031     1.07740
C1858       C  0.08611607  0.89307285  0.68045540     1.07670
C1859       C  0.08164937  0.89480353  0.82160600     1.07650
O1860       O  0.33172786  0.87887535  0.69160532    -0.81970
O1861       O  0.29943507  0.88724827  0.82897465    -0.81990
O1862       O  0.30111470  0.92195144  0.74443989    -0.82000
O1863       O  0.36542499  0.87608139  0.75455255    -0.81940
O1864       O  0.26858911  0.90991151  0.77971968    -0.82070
O1865       O  0.36288685  0.84050701  0.71998104    -0.81990
O1866       O  0.33588472  0.89818385  0.80165991    -0.81970
O1867       O  0.29472317  0.90616252  0.67924800    -0.82010
C1868       C  0.31961201  0.89790582  0.67318896     1.07720
C1869       C  0.32241644  0.90059497  0.82720092     1.07600
C1870       C  0.28129682  0.92883212  0.76354671     1.07740
C1871       C  0.37564901  0.86178153  0.73153402     1.07620
O1872       O  0.31991296  0.80488231  0.74174432    -0.81970
O1873       O  0.25238819  0.85343276  0.75723397    -0.82050
O1874       O  0.28343743  0.84994767  0.69354857    -0.81980
O1875       O  0.32346431  0.84006637  0.82797806    -0.81960
O1876       O  0.28562733  0.82893605  0.80276921    -0.82020
O1877       O  0.32014318  0.82367360  0.67733596    -0.81980
O1878       O  0.35359955  0.81754370  0.77552741    -0.81940
O1879       O  0.25453653  0.89060004  0.72493519    -0.82010
Co1880     Co  0.32126099  0.84244498  0.71876579     1.51530
Co1881     Co  0.27762405  0.86887773  0.79050266     1.51690
Co1882     Co  0.29602464  0.88571171  0.72020524     1.51570
Co1883     Co  0.34324406  0.85840250  0.78836206     1.51470
O1884       O  0.30955962  0.86349696  0.75941845    -1.43910
C1885       C  0.34150484  0.79830174  0.75872232     1.07650
C1886       C  0.24034619  0.87164847  0.73887606     1.07740
C1887       C  0.29494797  0.83232311  0.67314006     1.07670
C1888       C  0.29948496  0.82846307  0.82843359     1.07650
C1889       C  0.43666129  0.90799010  0.71938133    -0.15180
C1890       C  0.45775567  0.88706941  0.72398567     0.06970
C1891       C  0.45147329  0.85760272  0.72392608    -0.15180
C1892       C  0.42418139  0.84892972  0.72068413    -0.15180
C1893       C  0.40283108  0.86985896  0.72018846     0.06970
C1894       C  0.40909322  0.89938497  0.71852536    -0.15180
H1895       H  0.44117083  0.93080966  0.72049648     0.10950
H1896       H  0.46754338  0.84136572  0.72916760     0.10950
H1897       H  0.41962610  0.82620253  0.72312787     0.10950
H1898       H  0.39269168  0.91579384  0.71997981     0.10950
C1899       C  0.16636118  0.89597565  0.75379761    -0.15180
C1900       C  0.15253878  0.87018721  0.74788615     0.06970
C1901       C  0.16732352  0.84599597  0.73586410    -0.15180
C1902       C  0.19592585  0.84699374  0.73124448    -0.15180
C1903       C  0.20996204  0.87250667  0.73758580     0.06970
C1904       C  0.19506775  0.89721107  0.74833765    -0.15180
H1905       H  0.15502643  0.91497263  0.76236655     0.10950
H1906       H  0.15675417  0.82603542  0.73081800     0.10950
H1907       H  0.20723254  0.82769140  0.72343476     0.10950
H1908       H  0.20585953  0.91691407  0.75394621     0.10950
C1909       C  0.47281449  0.51280423  0.76988209    -0.15180
C1910       C  0.47964973  0.53079598  0.74379839     0.06970
C1911       C  0.00334634  0.52349020  0.72536459    -0.15180
C1912       C  0.01995815  0.49916966  0.73295584    -0.15180
C1913       C  0.01326094  0.98113166  0.75903112     0.06970
C1914       C  0.48937965  0.98820067  0.77734234    -0.15180
H1915       H  0.45512531  0.51814260  0.78506123     0.10950
H1916       H  0.00951121  0.53701108  0.70534494     0.10950
H1917       H  0.03775175  0.49415647  0.71781265     0.10950
H1918       H  0.48323392  0.97447765  0.79717764     0.10950
C1919       C  0.39528314  0.73725160  0.77027066    -0.15180
C1920       C  0.39147627  0.72059370  0.74216461     0.06970
C1921       C  0.36986003  0.72893512  0.72046722    -0.15180
C1922       C  0.35255669  0.75319349  0.72668825    -0.15180
C1923       C  0.35635157  0.76981941  0.75480863     0.06970
C1924       C  0.37800654  0.76152783  0.77646326    -0.15180
H1925       H  0.41119706  0.73113421  0.78792493     0.10950
H1926       H  0.36605682  0.71643710  0.69876338     0.10950
H1927       H  0.33666551  0.75935840  0.70902556     0.10950
H1928       H  0.38182038  0.77406218  0.79814260     0.10950
C1929       C  0.23875486  0.98872018  0.72734926    -0.15180
C1930       C  0.22708544  0.00202461  0.75492108     0.06970
C1931       C  0.23534619  0.99212254  0.78583124    -0.15180
C1932       C  0.25509083  0.96954880  0.78894326    -0.15180
C1933       C  0.26728344  0.95707607  0.76127797     0.06970
C1934       C  0.25893211  0.96680231  0.73051616    -0.15180
H1935       H  0.23296553  0.99594700  0.70317685     0.10950
H1936       H  0.22724307  0.50235543  0.80751788     0.10950
H1937       H  0.26051250  0.96141190  0.81287610     0.10950
H1938       H  0.26697060  0.95644078  0.70886047     0.10950
C1939       C  0.11727633  0.72408008  0.71394054    -0.15180
C1940       C  0.13511866  0.71511698  0.73944830     0.06970
C1941       C  0.13988652  0.73439362  0.76514474    -0.15180
C1942       C  0.12693655  0.76170888  0.76568935    -0.15180
C1943       C  0.10886421  0.77068044  0.74050442     0.06970
C1944       C  0.10430250  0.75168972  0.71442784    -0.15180
H1945       H  0.11320098  0.70972966  0.69382544     0.10950
H1946       H  0.15359303  0.72833684  0.78514627     0.10950
H1947       H  0.13111086  0.77582687  0.78600094     0.10950
H1948       H  0.09045041  0.75801396  0.69466948     0.10950
C1949       C  0.30846948  0.58200891  0.75948304    -0.15180
C1950       C  0.28761818  0.60096625  0.74776943     0.06970
C1951       C  0.29240086  0.63074126  0.74621540    -0.15180
C1952       C  0.31872258  0.64117543  0.75380484    -0.15180
C1953       C  0.34016496  0.62173778  0.76305198     0.06970
C1954       C  0.33467262  0.59227665  0.76665332    -0.15180
H1955       H  0.30484670  0.55905663  0.76160623     0.10950
H1956       H  0.27579907  0.64577895  0.73938721     0.10950
H1957       H  0.32284301  0.66387900  0.75021014     0.10950
H1958       H  0.35130683  0.57683026  0.77249712     0.10950
C1959       C  0.07903162  0.59301908  0.75326138    -0.15180
C1960       C  0.09389788  0.61377007  0.77059737     0.06970
C1961       C  0.07949042  0.63308420  0.79117909    -0.15180
C1962       C  0.05032105  0.63316190  0.79219907    -0.15180
C1963       C  0.03559152  0.61341738  0.77332522     0.06970
C1964       C  0.05008783  0.59272349  0.75482072    -0.15180
H1965       H  0.08970512  0.57796506  0.73721613     0.10950
H1966       H  0.09059467  0.64939118  0.80454431     0.10950
H1967       H  0.03926502  0.64936043  0.80642452     0.10950
H1968       H  0.03890447  0.57751911  0.73993176     0.10950
C1969       C  0.01968362  0.85396745  0.90513724    -0.15180
C1970       C  0.49161806  0.84592587  0.90505246     0.06970
C1971       C  0.48150490  0.82962365  0.87910261    -0.15180
C1972       C  0.49831742  0.82426165  0.85204601    -0.15180
C1973       C  0.02568663  0.83448679  0.85095167     0.06970
C1974       C  0.03681869  0.84761218  0.87862659    -0.15180
H1975       H  0.02769095  0.86727719  0.92447778     0.10950
H1976       H  0.45979950  0.82376225  0.87821781     0.10950
H1977       H  0.48914225  0.81441818  0.83080129     0.10950
H1978       H  0.05767014  0.85595547  0.87825428     0.10950
C1979       C  0.00551066  0.84945379  0.59915658    -0.15180
C1980       C  0.47707547  0.84339452  0.59978463     0.06970
C1981       C  0.46571812  0.83212778  0.62827703    -0.14940
C1982       C  0.48187451  0.83088116  0.65694154    -0.15180
C1983       C  0.00892058  0.84186626  0.65728196     0.06970
C1984       C  0.02126378  0.84865053  0.62758078    -0.15180
H1985       H  0.01480559  0.85785235  0.57733396     0.10950
H1986       H  0.44384767  0.82700131  0.62917770     0.10950
H1987       H  0.47241303  0.82372996  0.67896823     0.10950
H1988       H  0.04228106  0.85667758  0.62695412     0.10950
C1989       C  0.35241846  0.90088312  0.91085245    -0.15180
C1990       C  0.37971519  0.90979837  0.90465551     0.06970
C1991       C  0.38497126  0.92341253  0.87513110    -0.15180
C1992       C  0.36428004  0.92447072  0.85082467    -0.15180
C1993       C  0.33791229  0.91213782  0.85576435     0.06970
C1994       C  0.33138335  0.90329228  0.88714116    -0.15180
H1995       H  0.34786579  0.88994358  0.93318003     0.10950
H1996       H  0.40576260  0.93041762  0.86961187     0.10950
H1997       H  0.36996454  0.93216546  0.82703790     0.10950
H1998       H  0.31091626  0.89543624  0.89234883     0.10950
C1999       C  0.34784804  0.89782272  0.58876981    -0.15180
C2000       C  0.37562064  0.90591696  0.59417624     0.06970
C2001       C  0.38251980  0.91747393  0.62460001    -0.15180
C2002       C  0.36286028  0.91823131  0.64973638    -0.15180
C2003       C  0.33572209  0.90811471  0.64492984     0.06970
C2004       C  0.32804077  0.89935349  0.61365858    -0.15180
H2005       H  0.34160990  0.88915422  0.56573106     0.10950
H2006       H  0.40365219  0.92391918  0.62968240     0.10950
H2007       H  0.36925624  0.92521554  0.67352033     0.10950
H2008       H  0.30739602  0.89127804  0.60917583     0.10950
C2009       C  0.25581517  0.81426719  0.85674034    -0.15180
C2010       C  0.28311968  0.82492084  0.85885332     0.06970
C2011       C  0.29037710  0.84007673  0.88692632    -0.15180
C2012       C  0.26988778  0.84858143  0.90943267    -0.15180
C2013       C  0.24202907  0.84007473  0.90589997     0.06970
C2014       C  0.23569346  0.82143654  0.88014513    -0.15180
H2015       H  0.24934702  0.80223425  0.83558154     0.10950
H2016       H  0.31143963  0.84732705  0.89004866     0.10950
H2017       H  0.27588409  0.86238416  0.92900979     0.10950
H2018       H  0.21465798  0.81392992  0.87688556     0.10950
C2019       C  0.23061196  0.82467150  0.62288332    -0.15180
C2020       C  0.23975541  0.83610464  0.59348691     0.06970
C2021       C  0.26844951  0.83938333  0.58873768    -0.15180
C2022       C  0.28760495  0.83303410  0.61372832    -0.15180
C2023       C  0.27815138  0.82486429  0.64438384     0.06970
C2024       C  0.24962963  0.81951303  0.64832661    -0.15180
H2025       H  0.20854652  0.82236791  0.62719669     0.10950
H2026       H  0.27585926  0.84864893  0.56645637     0.10950
H2027       H  0.30934936  0.83782875  0.61025110     0.10950
H2028       H  0.24175072  0.81385259  0.67196709     0.10950
C2029       C  0.12894937  0.90769332  0.84216103    -0.15180
C2030       C  0.10007177  0.90597113  0.84771884     0.06970
C2031       C  0.09048532  0.90876746  0.87964061    -0.15180
C2032       C  0.10958802  0.90915609  0.90560188    -0.15180
C2033       C  0.13850142  0.90764545  0.90000249     0.06970
C2034       C  0.14797977  0.90851111  0.86804854    -0.15180
H2035       H  0.13703262  0.90592055  0.81784668     0.10950
H2036       H  0.06845806  0.90756775  0.88477487     0.10950
H2037       H  0.10180881  0.90785065  0.93012656     0.10950
H2038       H  0.17008689  0.90669166  0.86309286     0.10950
C2039       C  0.15245651  0.89466221  0.63440901    -0.15180
C2040       C  0.14267460  0.90380725  0.60384028     0.06970
C2041       C  0.11529239  0.91459336  0.60035504    -0.15180
C2042       C  0.09689027  0.91272976  0.62629090    -0.15180
C2043       C  0.10600871  0.90005469  0.65549707     0.06970
C2044       C  0.13408771  0.89245082  0.66005415    -0.15180
H2045       H  0.17345233  0.88575042  0.63729545     0.10950
H2046       H  0.10738732  0.92136148  0.57688777     0.10950
H2047       H  0.07517782  0.91903778  0.62281240     0.10950
H2048       H  0.14141075  0.88304912  0.68264689     0.10950
C2049       C  0.29258551  0.85180801  0.50213150    -0.15180
C2050       C  0.28207955  0.87763402  0.98837732     0.06970
C2051       C  0.29958728  0.90077797  0.98308706    -0.15180
C2052       C  0.32759040  0.89808308  0.99165522    -0.15180
C2053       C  0.33809599  0.87220685  0.50524483     0.06970
C2054       C  0.32060170  0.84906254  0.51053026    -0.15180
H2055       H  0.27885773  0.83412737  0.50713041     0.10950
H2056       H  0.29137518  0.92117327  0.97365404     0.10950
H2057       H  0.34128746  0.91584666  0.98694093     0.10950
H2058       H  0.32877032  0.82873445  0.52018109     0.10950
C2059       C  0.07919992  0.89588321  0.51502715    -0.15180
C2060       C  0.08860134  0.87009655  0.00016665     0.06970
C2061       C  0.06880584  0.85107569  0.48783865    -0.15180
C2062       C  0.04030109  0.85766945  0.49035463    -0.15180
C2063       C  0.03083919  0.88356361  0.50498512     0.06970
C2064       C  0.05062303  0.90250898  0.51755637    -0.15180
H2065       H  0.09395124  0.91118995  0.02420113     0.10950
H2066       H  0.07529089  0.83094851  0.97646633     0.10950
H2067       H  0.02561272  0.84249502  0.48057170     0.10950
H2068       H  0.04404810  0.92272009  0.52869935     0.10950
C2069       C  0.28547124  0.64699183  0.86369453    -0.15180
C2070       C  0.27194096  0.64534003  0.89347336     0.06970
C2071       C  0.24293682  0.64927924  0.89499865    -0.15180
C2072       C  0.22726810  0.65218432  0.86644975    -0.15180
C2073       C  0.24056513  0.65020440  0.83635964     0.06970
C2074       C  0.26981677  0.64933806  0.83518063    -0.15180
H2075       H  0.30787470  0.64377965  0.86230752     0.10950
H2076       H  0.23231433  0.64778856  0.91797734     0.10950
H2077       H  0.20473284  0.65245604  0.86782641     0.10950
H2078       H  0.28039600  0.64758339  0.81218453     0.10950
C2079       C  0.23741847  0.65164356  0.60171737    -0.15180
C2080       C  0.26601346  0.65127313  0.60855017     0.06970
C2081       C  0.27519089  0.65714474  0.64020736    -0.15180
C2082       C  0.25587773  0.66014960  0.66544171    -0.15180
C2083       C  0.22732177  0.65691432  0.65930701     0.06970
C2084       C  0.21823349  0.65477752  0.62683863    -0.15180
H2085       H  0.22996072  0.64767024  0.57729737     0.10950
H2086       H  0.29728079  0.65758637  0.64572489     0.10950
H2087       H  0.26345964  0.66166081  0.69001179     0.10950
H2088       H  0.19637933  0.65162171  0.62140503     0.10950
C2089       C  0.39793053  0.58467997  0.91144161    -0.15180
C2090       C  0.36886058  0.58841996  0.90787514     0.06970
C2091       C  0.35732977  0.58695887  0.87660954    -0.15180
C2092       C  0.37453835  0.58503798  0.84943668    -0.15180
C2093       C  0.40374987  0.58415458  0.85276282     0.06970
C2094       C  0.41524061  0.58213854  0.88414077    -0.15180
H2095       H  0.40751600  0.58644176  0.93500714     0.10950
H2096       H  0.33513855  0.59070686  0.87294319     0.10950
H2097       H  0.36501581  0.58697713  0.82572131     0.10950
H2098       H  0.43764147  0.58192756  0.88760187     0.10950
C2099       C  0.40436961  0.60200168  0.58345713    -0.15180
C2100       C  0.37704053  0.59204551  0.58657859     0.06970
C2101       C  0.37095738  0.57466214  0.61327619    -0.15180
C2102       C  0.39060336  0.57060602  0.63834964    -0.15180
C2103       C  0.41676570  0.58391564  0.63726346     0.06970
C2104       C  0.42433998  0.59709894  0.60814153    -0.15180
H2105       H  0.40975068  0.61539334  0.56315713     0.10950
H2106       H  0.35009489  0.56675676  0.61638396     0.10950
H2107       H  0.38410606  0.55978821  0.66021487     0.10950
H2108       H  0.44467304  0.60625740  0.60590558     0.10950
C2109       C  0.25511690  0.51849909  0.48112767    -0.15180
C2110       C  0.26743928  0.52729231  0.51048240     0.06970
C2111       C  0.26413917  0.00969119  0.03803526    -0.15180
C2112       C  0.24888065  0.98428497  0.03643686    -0.15180
C2113       C  0.23644098  0.97551289  0.00721339     0.06970
C2114       C  0.23989171  0.49288950  0.97949173    -0.15180
H2115       H  0.25698947  0.53153688  0.45947922     0.10950
H2116       H  0.27320001  0.01565068  0.06112796     0.10950
H2117       H  0.24703650  0.97136083  0.05817749     0.10950
H2118       H  0.23081034  0.48670994  0.95648303     0.10950
C2119       C  0.36540949  0.73545199  0.96116369    -0.15180
C2120       C  0.34877597  0.72852825  0.48793885     0.06970
C2121       C  0.34873842  0.74703382  0.51492337    -0.15180
C2122       C  0.36579579  0.77102629  0.51579617    -0.15180
C2123       C  0.38296582  0.77756845  0.48947204     0.06970
C2124       C  0.38206247  0.75999239  0.96175250    -0.15180
H2125       H  0.36614075  0.72145961  0.94013874     0.10950
H2126       H  0.33651985  0.74224373  0.53612447     0.10950
H2127       H  0.36547457  0.78456381  0.53721351     0.10950
H2128       H  0.39473481  0.76479582  0.94093315     0.10950
C2129       C  0.01025640  0.67536106  0.87188823    -0.15180
C2130       C  0.00675559  0.65718393  0.89867982     0.06970
C2131       C  0.48050816  0.64544066  0.90407300    -0.15180
C2132       C  0.45845446  0.65067622  0.88237350    -0.15180
C2133       C  0.46262560  0.66648381  0.85395014     0.06970
C2134       C  0.98850020  0.67947437  0.84929432    -0.15180
H2135       H  0.03036404  0.68454608  0.86719169     0.10950
H2136       H  0.47726943  0.63108436  0.92420340     0.10950
H2137       H  0.43913123  0.63953929  0.88588942     0.10950
H2138       H  0.99260655  0.69068777  0.82683584     0.10950
C2139       C  0.46089892  0.66101177  0.61366602    -0.15180
C2140       C  0.47014953  0.67015099  0.64421522     0.06970
C2141       C  0.99864971  0.67652665  0.64810097    -0.15180
C2142       C  0.01796524  0.66899797  0.62407132    -0.15180
C2143       C  0.00901001  0.65506448  0.59593585     0.06970
C2144       C  0.48027553  0.65267596  0.59002965    -0.15180
H2145       H  0.43904843  0.65701766  0.60942832     0.10950
H2146       H  0.00650638  0.68426243  0.67111644     0.10950
H2147       H  0.04000172  0.67161797  0.62875099     0.10950
H2148       H  0.47290912  0.64265071  0.56796280     0.10950
C2149       C  0.12301431  0.59138055  0.84830743    -0.15180
C2150       C  0.15114738  0.59794818  0.85200673     0.06970
C2151       C  0.16267839  0.60035529  0.88321815    -0.15180
C2152       C  0.14538686  0.59960897  0.91031171    -0.15180
C2153       C  0.11667475  0.59578400  0.90626283     0.06970
C2154       C  0.10583112  0.59034444  0.87529113    -0.15180
H2155       H  0.11414940  0.58810054  0.82451562     0.10950
H2156       H  0.18456804  0.60481652  0.88645911     0.10950
H2157       H  0.15395510  0.60452873  0.93396089     0.10950
H2158       H  0.08360849  0.58798159  0.87168660     0.10950
C2159       C  0.09446202  0.58079343  0.62260951    -0.15180
C2160       C  0.10741400  0.58467260  0.59262676     0.06970
C2161       C  0.13638561  0.58116887  0.59041172    -0.15180
C2162       C  0.15252889  0.57737558  0.61834051    -0.15180
C2163       C  0.13974701  0.57749787  0.64868638     0.06970
C2164       C  0.11065024  0.57758644  0.65074674    -0.15180
H2165       H  0.07215333  0.58426218  0.62483725     0.10950
H2166       H  0.14672823  0.58497750  0.56779866     0.10950
H2167       H  0.17503464  0.57799895  0.61653272     0.10950
H2168       H  0.10060596  0.57823931  0.67414841     0.10950
C2169       C  0.48961296  0.52945150  0.51206852    -0.15180
C2170       C  0.00796449  0.53416909  0.48626850     0.06970
C2171       C  0.00897328  0.01389706  0.96086519    -0.15180
C2172       C  0.49257347  0.98936905  0.96141094    -0.15180
C2173       C  0.47452747  0.98427292  0.48734634     0.06970
C2174       C  0.47304103  0.50478233  0.51258281    -0.15180
H2175       H  0.48797163  0.54485711  0.53175593     0.10950
H2176       H  0.02268223  0.01684606  0.94047933     0.10950
H2177       H  0.49454504  0.97402028  0.94170026     0.10950
H2178       H  0.45962312  0.50140727  0.53313787     0.10950
C2179       C  0.45555462  0.66289427  0.00343599    -0.15180
C2180       C  0.46725926  0.63725319  0.99087444     0.06970
C2181       C  0.45065200  0.61348872  0.48460639    -0.15180
C2182       C  0.42265125  0.61494294  0.49186974    -0.15180
C2183       C  0.41069035  0.64054152  0.00408892     0.06970
C2184       C  0.42715169  0.66465987  0.00973620    -0.15180
H2185       H  0.46848365  0.68110320  0.00911496     0.10950
H2186       H  0.45965845  0.59316156  0.47611937     0.10950
H2187       H  0.41041332  0.59580216  0.48870301     0.10950
H2188       H  0.41814813  0.68462739  0.01913691     0.10950
C2189       C  0.17790614  0.65702120  0.48281088    -0.15180
C2190       C  0.16020712  0.63561496  0.49430161     0.06970
C2191       C  0.17209039  0.61099838  0.00951598    -0.15180
C2192       C  0.20085393  0.60834597  0.01448784    -0.15180
C2193       C  0.21848679  0.62974133  0.50311478     0.06970
C2194       C  0.20682533  0.65392196  0.48683905    -0.15180
H2195       H  0.16942192  0.67619215  0.47085757     0.10950
H2196       H  0.15912745  0.59354013  0.01708849     0.10950
H2197       H  0.20942590  0.58894663  0.02593456     0.10950
H2198       H  0.22011578  0.67039189  0.47722248     0.10950
C2199       C  0.11886923  0.73324315  0.54136882    -0.15180
C2200       C  0.10323613  0.72624163  0.01357982     0.06970
C2201       C  0.10666072  0.74230381  0.98505569    -0.15180
C2202       C  0.12585665  0.76434995  0.98402374    -0.15180
C2203       C  0.14145924  0.77128149  0.01168262     0.06970
C2204       C  0.13745183  0.75606733  0.54060425    -0.15180
H2205       H  0.11689260  0.72089457  0.56351245     0.10950
H2206       H  0.09532471  0.73708494  0.96310006     0.10950
H2207       H  0.12798873  0.77656362  0.96179016     0.10950
H2208       H  0.14880321  0.76172459  0.56239935     0.10950
O2209       O  0.59531297  0.17829472  0.03011448    -0.81970
O2210       O  0.50815177  0.11529674  0.47105362    -0.81990
O2211       O  0.54184338  0.16914218  0.43708196    -0.82000
O2212       O  0.52609276  0.11383009  0.06761312    -0.81940
O2213       O  0.53832424  0.12281862  0.42289740    -0.82070
O2214       O  0.54712123  0.15503768  0.05797942    -0.81990
O2215       O  0.51116013  0.14184594  0.01348170    -0.81970
O2216       O  0.57026711  0.19557758  0.48916173    -0.82010
C2217       C  0.58753932  0.19933785  0.51211658     1.07720
C2218       C  0.99706069  0.13247465  0.49080101     1.07600
C2219       C  0.53041768  0.14942328  0.42035203     1.07740
C2220       C  0.52904319  0.14049442  0.07411302     1.07620
O2221       O  0.59778636  0.13043810  0.07096428    -0.81970
O2222       O  0.58674798  0.09285791  0.45195713    -0.82050
O2223       O  0.61850923  0.16002956  0.47561779    -0.81980
O2224       O  0.52709891  0.07813047  0.00938957    -0.81960
O2225       O  0.53477805  0.06744333  0.45655765    -0.82020
O2226       O  0.61445690  0.12312990  0.00894458    -0.81980
O2227       O  0.57684239  0.09400377  0.04666917    -0.81940
O2228       O  0.59051113  0.13458769  0.42583125    -0.82010
Co2229     Co  0.58053714  0.13836675  0.03078363     1.51530
Co2230     Co  0.54848599  0.10404901  0.46554504     1.51690
Co2231     Co  0.57905780  0.16416659  0.45833870     1.51570
Co2232     Co  0.54369017  0.11814009  0.02676362     1.51470
O2233       O  0.56185849  0.13621579  0.98850241    -1.43910
C2234       C  0.59330039  0.10356564  0.06912232     1.07650
C2235       C  0.59758469  0.10816542  0.43003560     1.07740
C2236       C  0.62949724  0.13945747  0.99226492     1.07670
C2237       C  0.52462405  0.06084877  0.98416123     1.07650
O2238       O  0.78989181  0.06344727  0.04170740    -0.81970
O2239       O  0.86602663  0.12386989  0.49509098    -0.81990
O2240       O  0.83646829  0.09280318  0.45382683    -0.82000
O2241       O  0.84614726  0.13102442  0.07336236    -0.81940
O2242       O  0.85374664  0.13195439  0.43186656    -0.82070
O2243       O  0.84095854  0.09034481  0.04575217    -0.81990
O2244       O  0.86962148  0.16226170  0.02512243    -0.81970
O2245       O  0.78515868  0.07219469  0.48798607    -0.82010
C2246       C  0.78203365  0.05541665  0.01344712     1.07720
C2247       C  0.88082116  0.14205260  0.50901854     1.07600
C2248       C  0.85255562  0.10466624  0.43249258     1.07740
C2249       C  0.85384910  0.10505451  0.06696404     1.07620
O2250       O  0.79321206  0.11759816  0.07762370    -0.81970
O2251       O  0.80085696  0.15107055  0.44043711    -0.82050
O2252       O  0.76305442  0.13193857  0.48030548    -0.81980
O2253       O  0.81999202  0.19456403  0.01430561    -0.81960
O2254       O  0.84460649  0.17931103  0.47232221    -0.82020
O2255       O  0.76063112  0.11082608  0.02698126    -0.81980
O2256       O  0.79500180  0.16440397  0.06545197    -0.81940
O2257       O  0.78589528  0.10726178  0.42850724    -0.82010
Co2258     Co  0.80163998  0.10103049  0.03340966     1.51530
Co2259     Co  0.83334075  0.13769192  0.47047935     1.51690
Co2260     Co  0.79956998  0.11307302  0.47129687     1.51570
Co2261     Co  0.83119287  0.16193945  0.04298531     1.51470
O2262       O  0.81310389  0.13460509  0.01121951    -1.43910
C2263       C  0.78590788  0.14403149  0.08270852     1.07650
C2264       C  0.78726444  0.13403445  0.42150537     1.07740
C2265       C  0.74889395  0.12457640  0.00401558     1.07670
C2266       C  0.83581216  0.19981322  0.49052620     1.07650
O2267       O  0.65198009  0.31734469  0.03127369    -0.81970
O2268       O  0.73760710  0.38949690  0.46399046    -0.81990
O2269       O  0.70123355  0.33215602  0.43688749    -0.82000
O2270       O  0.71921309  0.37614275  0.06550446    -0.81940
O2271       O  0.72054207  0.37636434  0.44078178    -0.82070
O2272       O  0.70199142  0.33424120  0.05516158    -0.81990
O2273       O  0.74053428  0.38115463  0.01504280    -0.81970
O2274       O  0.67360827  0.30229031  0.48711085    -0.82010
C2275       C  0.65788723  0.29750585  0.51103832     1.07720
C2276       C  0.75241085  0.38300303  0.48861531     1.07600
C2277       C  0.71971130  0.35018367  0.42877996     1.07740
C2278       C  0.71947339  0.34915597  0.07032134     1.07620
O2279       O  0.65543844  0.36260910  0.07581364    -0.81970
O2280       O  0.67523493  0.41007254  0.43974816    -0.82050
O2281       O  0.62759692  0.34202443  0.48070923    -0.81980
O2282       O  0.71751481  0.43262979  0.03149719    -0.81960
O2283       O  0.71375721  0.43745519  0.47768137    -0.82020
O2284       O  0.63589660  0.37585060  0.01605952    -0.81980
O2285       O  0.66715505  0.40451460  0.05260051    -0.81940
O2286       O  0.65342649  0.36921491  0.43230211    -0.82010
Co2287     Co  0.66967363  0.35561963  0.03494354     1.51530
Co2288     Co  0.69847386  0.39776144  0.47781428     1.51690
Co2289     Co  0.66589778  0.33773441  0.46143617     1.51570
Co2290     Co  0.70234648  0.39321006  0.02531651     1.51470
O2291       O  0.68821644  0.35941872  0.49587612    -1.43910
C2292       C  0.65609897  0.39006155  0.07628499     1.07650
C2293       C  0.65699550  0.39536549  0.42552973     1.07740
C2294       C  0.61886268  0.36258070  0.49851210     1.07670
C2295       C  0.72155215  0.44753648  0.50543787     1.07650
O2296       O  0.94455724  0.45069693  0.01346681    -0.81970
O2297       O  0.88078378  0.36793503  0.48040117    -0.81990
O2298       O  0.91970485  0.41564935  0.44043025    -0.82000
O2299       O  0.89785407  0.37380880  0.05606885    -0.81940
O2300       O  0.90504904  0.37244765  0.43138121    -0.82070
O2301       O  0.91506467  0.41872973  0.06211051    -0.81990
O2302       O  0.88166741  0.36167877  0.03179091    -0.81970
O2303       O  0.96765434  0.43579811  0.47000739    -0.82010
C2304       C  0.96061013  0.45589709  0.48979013     1.07720
C2305       C  0.86780881  0.36711389  0.00628771     1.07600
C2306       C  0.90282803  0.39923981  0.42607560     1.07740
C2307       C  0.89773081  0.39929492  0.06970782     1.07620
O2308       O  0.96301099  0.38229083  0.06743818    -0.81970
O2309       O  0.95774289  0.34673622  0.44873773    -0.82050
O2310       O  0.98435821  0.37732637  0.48736513    -0.81980
O2311       O  0.90608802  0.31452648  0.01886922    -0.81960
O2312       O  0.90649593  0.31754232  0.46492201    -0.82020
O2313       O  0.99080176  0.41188947  0.02195018    -0.81980
O2314       O  0.94216407  0.34120854  0.05820514    -0.81940
O2315       O  0.97038370  0.38835511  0.42542718    -0.82010
Co2316     Co  0.95141859  0.41449069  0.03865381     1.51530
Co2317     Co  0.92021987  0.35720324  0.47289265     1.51690
Co2318     Co  0.95185659  0.39630699  0.46448403     1.51570
Co2319     Co  0.92095447  0.35401454  0.01915280     1.51470
O2320       O  0.93106567  0.39275523  0.00197604    -1.43910
C2321       C  0.95940373  0.35599058  0.07375556     1.07650
C2322       C  0.97186780  0.36079834  0.42695468     1.07740
C2323       C  0.00055609  0.39116048  0.00521753     1.07670
C2324       C  0.89991120  0.30388267  0.99094629     1.07650
O2325       O  0.70578196  0.11569102  0.17563987    -0.81970
O2326       O  0.70070808  0.14916626  0.30168669    -0.81990
O2327       O  0.64601292  0.16738682  0.21730660    -0.82000
O2328       O  0.75018142  0.07176590  0.25910728    -0.81940
O2329       O  0.66365022  0.17850541  0.26488912    -0.82070
O2330       O  0.74598499  0.09859275  0.21660742    -0.81990
O2331       O  0.73506140  0.11863077  0.29314726    -0.81970
O2332       O  0.70171146  0.15099938  0.20978812    -0.82010
C2333       C  0.71084556  0.14120155  0.18316850     1.07720
C2334       C  0.72483315  0.13967740  0.30840995     1.07600
C2335       C  0.64871396  0.18591215  0.24029560     1.07740
C2336       C  0.76025243  0.08972688  0.24031642     1.07620
O2337       O  0.71708729  0.04360446  0.22467959    -0.81970
O2338       O  0.64057108  0.13044793  0.28148400    -0.82050
O2339       O  0.65636362  0.11309968  0.18375083    -0.81980
O2340       O  0.68867470  0.08652537  0.31840364    -0.81960
O2341       O  0.66080147  0.12372552  0.30356964    -0.82020
O2342       O  0.67304118  0.06817015  0.18991520    -0.81980
O2343       O  0.70224398  0.04318993  0.27536781    -0.81940
O2344       O  0.63283443  0.11103045  0.23610204    -0.82010
Co2345     Co  0.70931084  0.08227246  0.20483221     1.51530
Co2346     Co  0.67903591  0.13879903  0.26219905     1.51690
Co2347     Co  0.66774640  0.13060148  0.22627320     1.51570
Co2348     Co  0.71665317  0.08175503  0.28418834     1.51470
O2349       O  0.69152518  0.09804523  0.24662549    -1.43910
C2350       C  0.71268953  0.03027860  0.25106109     1.07650
C2351       C  0.62328153  0.11823782  0.26272803     1.07740
C2352       C  0.65635385  0.08623677  0.17646340     1.07670
C2353       C  0.66807250  0.10316978  0.32333069     1.07650
O2354       O  0.91514865  0.09329088  0.19271761    -0.81970
O2355       O  0.94620305  0.08457614  0.32106889    -0.81990
O2356       O  0.97965674  0.07861251  0.22390921    -0.82000
O2357       O  0.88083259  0.14965969  0.27264826    -0.81940
O2358       O  0.94466233  0.06718272  0.25601851    -0.82070
O2359       O  0.88201567  0.11448126  0.23740820    -0.81990
O2360       O  0.90990765  0.11067770  0.30404439    -0.81970
O2361       O  0.95400443  0.10428387  0.17050748    -0.82010
C2362       C  0.93048261  0.09204105  0.16851828     1.07720
C2363       C  0.92103170  0.09292465  0.32478105     1.07600
C2364       C  0.96610926  0.05979423  0.23961461     1.07740
C2365       C  0.86895284  0.12922704  0.25801586     1.07620
O2366       O  0.89530717  0.17334825  0.21986464    -0.81970
O2367       O  0.48940312  0.09817425  0.28043230    -0.82050
O2368       O  0.96690059  0.16075493  0.19960517    -0.81980
O2369       O  0.92114383  0.16594790  0.32014516    -0.81960
O2370       O  0.95893155  0.14014767  0.30618482    -0.82020
O2371       O  0.92959923  0.15214007  0.17130948    -0.81980
O2372       O  0.92676510  0.18483254  0.25667852    -0.81940
O2373       O  0.49596115  0.13474781  0.24843797    -0.82010
Co2374     Co  0.90675161  0.13268512  0.20699986     1.51530
Co2375     Co  0.94797334  0.10406225  0.27975549     1.51690
Co2376     Co  0.97267157  0.12040250  0.21224113     1.51570
Co2377     Co  0.92260076  0.14716677  0.27866294     1.51470
O2378       O  0.93793487  0.12625544  0.23927729    -1.43910
C2379       C  0.90639039  0.19212089  0.23821464     1.07650
C2380       C  0.50548967  0.11645125  0.26856217     1.07740
C2381       C  0.95362915  0.16339415  0.17348706     1.07670
C2382       C  0.94643552  0.15802248  0.32537644     1.07650
O2383       O  0.52834536  0.38139507  0.18331567    -0.81970
O2384       O  0.56415604  0.33998464  0.31415142    -0.81990
O2385       O  0.58184980  0.31074825  0.21750749    -0.82000
O2386       O  0.99425458  0.38083735  0.25993603    -0.81940
O2387       O  0.59572653  0.31407539  0.26898966    -0.82070
O2388       O  0.99841997  0.41519260  0.22398861    -0.81990
O2389       O  0.52377148  0.34908809  0.29657973    -0.81970
O2390       O  0.52889618  0.34067943  0.21148621    -0.82010
C2391       C  0.52149363  0.35509692  0.18643389     1.07720
C2392       C  0.53855819  0.33950469  0.31908848     1.07600
C2393       C  0.59480295  0.29957579  0.24226877     1.07740
C2394       C  0.98488391  0.39499853  0.23627508     1.07620
O2395       O  0.54669383  0.44535989  0.24290963    -0.81970
O2396       O  0.61007510  0.37041273  0.27826688    -0.82050
O2397       O  0.57796676  0.36714681  0.18361206    -0.81980
O2398       O  0.55530763  0.40051226  0.32105313    -0.81960
O2399       O  0.59324812  0.37732482  0.30093361    -0.82020
O2400       O  0.57766963  0.41282276  0.19930762    -0.81980
O2401       O  0.51768503  0.43382046  0.28178373    -0.81940
O2402       O  0.60800710  0.35937349  0.22859518    -0.82010
Co2403     Co  0.53920625  0.41232805  0.21461336     1.51530
Co2404     Co  0.57412073  0.35128166  0.26838023     1.51690
Co2405     Co  0.56702665  0.35033839  0.22673647     1.51570
Co2406     Co  0.52453379  0.39092655  0.28840746     1.51470
O2407       O  0.55231956  0.38623959  0.25201592    -1.43910
C2408       C  0.52784901  0.45255865  0.26285196     1.07650
C2409       C  0.62250786  0.36779794  0.25173670     1.07740
C2410       C  0.58610841  0.39307877  0.18045985     1.07670
C2411       C  0.58165435  0.39479654  0.32161086     1.07650
O2412       O  0.83171648  0.37887902  0.19159690    -0.81970
O2413       O  0.79945585  0.38724821  0.32897737    -0.81990
O2414       O  0.80111760  0.42195405  0.24444777    -0.82000
O2415       O  0.86542597  0.37608315  0.25453143    -0.81940
O2416       O  0.76859710  0.40991410  0.27973335    -0.82070
O2417       O  0.86288167  0.34050834  0.21996134    -0.81990
O2418       O  0.83589816  0.39818461  0.30165035    -0.81970
O2419       O  0.79471131  0.40617251  0.17925695    -0.82010
C2420       C  0.81959783  0.39791411  0.17318870     1.07720
C2421       C  0.82243740  0.40059388  0.32719689     1.07600
C2422       C  0.78130182  0.42883485  0.26355736     1.07740
C2423       C  0.87564720  0.36178133  0.23151272     1.07620
O2424       O  0.81991339  0.30488305  0.24173626    -0.81970
O2425       O  0.75238860  0.35343751  0.25725092    -0.82050
O2426       O  0.78342724  0.34995609  0.19355204    -0.81980
O2427       O  0.82348330  0.34006622  0.32797085    -0.81960
O2428       O  0.78564035  0.32893731  0.30277313    -0.82020
O2429       O  0.82012711  0.32367843  0.17732851    -0.81980
O2430       O  0.85360597  0.31754526  0.27551102    -0.81940
O2431       O  0.75453494  0.39060498  0.22495112    -0.82010
Co2432     Co  0.82125539  0.34244740  0.21875919     1.51530
Co2433     Co  0.77763452  0.36887980  0.29051154     1.51690
Co2434     Co  0.79602154  0.38571692  0.22021019     1.51570
Co2435     Co  0.84325384  0.35840368  0.28834894     1.51470
O2436       O  0.80956278  0.36349796  0.25941658    -1.43910
C2437       C  0.84150780  0.29830277  0.25871034     1.07650
C2438       C  0.74034591  0.37165287  0.23889279     1.07740
C2439       C  0.79493180  0.33233065  0.17313987     1.07670
C2440       C  0.79950413  0.32846266  0.32843305     1.07650
C2441       C  0.93666417  0.40798164  0.21936707    -0.15180
C2442       C  0.95775575  0.38706197  0.22399573     0.06970
C2443       C  0.95147237  0.35759540  0.22394457    -0.15180
C2444       C  0.92418144  0.34892246  0.22068912    -0.15180
C2445       C  0.90283189  0.36985230  0.22016970     0.06970
C2446       C  0.90909601  0.39937725  0.21849587    -0.15180
H2447       H  0.94117397  0.43080146  0.22047338     0.10950
H2448       H  0.96754031  0.34135874  0.22919736     0.10950
H2449       H  0.91962413  0.32619640  0.22314046     0.10950
H2450       H  0.89269442  0.41578713  0.21993289     0.10950
C2451       C  0.66635807  0.39597700  0.25380092    -0.15180
C2452       C  0.65253672  0.37018919  0.24788272     0.06970
C2453       C  0.66732352  0.34599884  0.23586186    -0.15180
C2454       C  0.69592704  0.34699664  0.23125102    -0.15180
C2455       C  0.70996196  0.37250904  0.23759924     0.06970
C2456       C  0.69506562  0.39721278  0.24834895    -0.15180
H2457       H  0.65502183  0.41497316  0.26236957     0.10950
H2458       H  0.65675507  0.32603859  0.23081154     0.10950
H2459       H  0.70723530  0.32769499  0.22344230     0.10950
H2460       H  0.70585629  0.41691549  0.25396190     0.10950
C2461       C  0.97281022  0.01279809  0.26988555    -0.15180
C2462       C  0.97965350  0.03079357  0.24380806     0.06970
C2463       C  0.50335714  0.02349126  0.22538462    -0.15180
C2464       C  0.51996758  0.99917069  0.23297971    -0.15180
C2465       C  0.51325794  0.48112756  0.25904463     0.06970
C2466       C  0.98937841  0.48819907  0.27735777    -0.15180
H2467       H  0.95511514  0.01813329  0.28505674     0.10950
H2468       H  0.50952845  0.03701462  0.20537002     0.10950
H2469       H  0.53776694  0.99416069  0.21784438     0.10950
H2470       H  0.98323465  0.47447862  0.29719621     0.10950
C2471       C  0.89528207  0.23724995  0.27026451    -0.15180
C2472       C  0.89147516  0.22059057  0.24215963     0.06970
C2473       C  0.86985956  0.22893166  0.22046108    -0.15180
C2474       C  0.85255724  0.25319152  0.22667966    -0.15180
C2475       C  0.85635246  0.26981902  0.25479878     0.06970
C2476       C  0.87800646  0.26152738  0.27645473    -0.15180
H2477       H  0.91119534  0.23113291  0.28791969     0.10950
H2478       H  0.86605631  0.21643245  0.19875813     0.10950
H2479       H  0.83666679  0.25935641  0.20901607     0.10950
H2480       H  0.88182043  0.27406276  0.29813329     0.10950
C2481       C  0.73875795  0.48871992  0.22735558    -0.15180
C2482       C  0.72708569  0.50202384  0.25492608     0.06970
C2483       C  0.73534459  0.49212227  0.28583710    -0.15180
C2484       C  0.75509031  0.46954968  0.28895123    -0.15180
C2485       C  0.76728593  0.45707766  0.26128726     0.06970
C2486       C  0.75893633  0.46680343  0.23052462    -0.15180
H2487       H  0.73297013  0.49594626  0.20318254     0.10950
H2488       H  0.72723981  0.00235592  0.30752261     0.10950
H2489       H  0.76051065  0.46141328  0.31288465     0.10950
H2490       H  0.76697718  0.45644265  0.20886970     0.10950
C2491       C  0.61727632  0.22407933  0.21393436    -0.15180
C2492       C  0.63512081  0.21511786  0.23944097     0.06970
C2493       C  0.63989097  0.23439635  0.26513491    -0.15180
C2494       C  0.62694081  0.26171143  0.26567876    -0.15180
C2495       C  0.60886573  0.27068121  0.24049560     0.06970
C2496       C  0.60430212  0.25168898  0.21442092    -0.15180
H2497       H  0.61319926  0.20972748  0.19382106     0.10950
H2498       H  0.65359927  0.22834107  0.28513534     0.10950
H2499       H  0.63111686  0.27583056  0.28598884     0.10950
H2500       H  0.59044797  0.25801184  0.19466395     0.10950
C2501       C  0.80846969  0.08200669  0.25948607    -0.15180
C2502       C  0.78761914  0.10096410  0.24777083     0.06970
C2503       C  0.79240237  0.13073896  0.24621618    -0.15180
C2504       C  0.81872401  0.14117282  0.25380665    -0.15180
C2505       C  0.84016575  0.12173502  0.26305540     0.06970
C2506       C  0.83467274  0.09227410  0.26665741    -0.15180
H2507       H  0.80484644  0.05905453  0.26160977     0.10950
H2508       H  0.77580108  0.14577681  0.23938685     0.10950
H2509       H  0.82284496  0.16387621  0.25021139     0.10950
H2510       H  0.85130648  0.07682750  0.27250223     0.10950
C2511       C  0.57903354  0.09301960  0.25326231    -0.15180
C2512       C  0.59389935  0.11377231  0.27059615     0.06970
C2513       C  0.57949151  0.13308815  0.29117552    -0.15180
C2514       C  0.55032214  0.13316549  0.29219530    -0.15180
C2515       C  0.53559310  0.11341897  0.27332360     0.06970
C2516       C  0.55008982  0.09272373  0.25482146    -0.15180
H2517       H  0.58970735  0.07796432  0.23721875     0.10950
H2518       H  0.59059545  0.14939649  0.30453897     0.10950
H2519       H  0.53926575  0.14936506  0.30641893     0.10950
H2520       H  0.53890682  0.07751791  0.23993411     0.10950
C2521       C  0.51970150  0.35395785  0.40514148    -0.15180
C2522       C  0.99163640  0.34591514  0.40506034     0.06970
C2523       C  0.98152196  0.32960933  0.37911415    -0.15180
C2524       C  0.99833210  0.32424665  0.35205591    -0.15180
C2525       C  0.52569996  0.33447463  0.35095694     0.06970
C2526       C  0.53683433  0.34760168  0.37862947    -0.15180
H2527       H  0.52770972  0.36726991  0.42447948     0.10950
H2528       H  0.95981685  0.32374662  0.37823264     0.10950
H2529       H  0.98915548  0.31440158  0.33081300     0.10950
H2530       H  0.55768501  0.35594674  0.37825350     0.10950
C2531       C  0.50549228  0.34947017  0.09916054    -0.15180
C2532       C  0.97705737  0.34340955  0.09979068     0.06970
C2533       C  0.96570238  0.33214214  0.12828428    -0.14940
C2534       C  0.98186141  0.33089393  0.15694711    -0.15180
C2535       C  0.50890813  0.34187766  0.15728509     0.06970
C2536       C  0.52124796  0.34866519  0.12758292    -0.15180
H2537       H  0.51478554  0.35786954  0.07733732     0.10950
H2538       H  0.94383213  0.32701513  0.12918699     0.10950
H2539       H  0.97240211  0.32374172  0.17897479     0.10950
H2540       H  0.54226525  0.35669203  0.12695429     0.10950
C2541       C  0.85244283  0.40089514  0.41085062    -0.15180
C2542       C  0.87974298  0.40979774  0.40465006     0.06970
C2543       C  0.88500489  0.42339668  0.37511840    -0.15180
C2544       C  0.86431440  0.42445338  0.35081117    -0.15180
C2545       C  0.83794145  0.41213356  0.35575645     0.06970
C2546       C  0.83140891  0.40330211  0.38713742    -0.15180
H2547       H  0.84788603  0.38996672  0.43318366     0.10950
H2548       H  0.90579918  0.43039098  0.36959588     0.10950
H2549       H  0.87000235  0.43213733  0.32702116     0.10950
H2550       H  0.81093858  0.39545634  0.39234901     0.10950
C2551       C  0.84782901  0.39781781  0.08877038    -0.15180
C2552       C  0.87559830  0.40592550  0.09417151     0.06970
C2553       C  0.88249375  0.41749730  0.12458943    -0.15180
C2554       C  0.86283497  0.41825552  0.14972676    -0.15180
C2555       C  0.83570122  0.40812513  0.14492603     0.06970
C2556       C  0.82802240  0.39934962  0.11365930    -0.15180
H2557       H  0.84159341  0.38913733  0.06573652     0.10950
H2558       H  0.90362348  0.42395347  0.12966757     0.10950
H2559       H  0.86922869  0.42525111  0.17350743     0.10950
H2560       H  0.80738096  0.39126371  0.10918152     0.10950
C2561       C  0.75584540  0.31425247  0.35675229    -0.15180
C2562       C  0.78314530  0.32491886  0.35885710     0.06970
C2563       C  0.79039871  0.34008789  0.38692245    -0.15180
C2564       C  0.76990789  0.34859288  0.40942685    -0.15180
C2565       C  0.74205260  0.34007260  0.40590160     0.06970
C2566       C  0.73572287  0.32142161  0.38015628    -0.15180
H2567       H  0.74938059  0.30220966  0.33559921     0.10950
H2568       H  0.81145818  0.34734847  0.39003842     0.10950
H2569       H  0.77590010  0.36240702  0.42899604     0.10950
H2570       H  0.71469050  0.31390453  0.37690248     0.10950
C2571       C  0.73058586  0.32469108  0.12289536    -0.15180
C2572       C  0.73972980  0.33611153  0.09349290     0.06970
C2573       C  0.76842461  0.33937906  0.08873807    -0.15180
C2574       C  0.78758103  0.33303092  0.11372813    -0.15180
C2575       C  0.77812823  0.32487346  0.14438823     0.06970
C2576       C  0.74960489  0.31953348  0.14833748    -0.15180
H2577       H  0.70851998  0.32239646  0.12721311     0.10950
H2578       H  0.77583481  0.34863539  0.06645220     0.10950
H2579       H  0.80932679  0.33781674  0.11024546     0.10950
H2580       H  0.74172677  0.31388214  0.17198112     0.10950
C2581       C  0.62895755  0.40768211  0.34216106    -0.15180
C2582       C  0.60008025  0.40596171  0.34772241     0.06970
C2583       C  0.59049724  0.40875902  0.37964559    -0.15180
C2584       C  0.60960268  0.40914825  0.40560442    -0.15180
C2585       C  0.63851560  0.40763701  0.40000146     0.06970
C2586       C  0.64799062  0.40850019  0.36804603    -0.15180
H2587       H  0.63703852  0.40590840  0.31784586     0.10950
H2588       H  0.56847046  0.40756036  0.38478291     0.10950
H2589       H  0.60182583  0.40784421  0.43013024     0.10950
H2590       H  0.67009719  0.40667981  0.36308740     0.10950
C2591       C  0.65244354  0.39468688  0.13440555    -0.15180
C2592       C  0.64265509  0.40382240  0.10383607     0.06970
C2593       C  0.61526913  0.41459787  0.10035241    -0.15180
C2594       C  0.59687042  0.41273137  0.12629090    -0.15180
C2595       C  0.60599632  0.40006503  0.15549855     0.06970
C2596       C  0.63407834  0.39247350  0.16005409    -0.15180
H2597       H  0.67344240  0.38578293  0.13729074     0.10950
H2598       H  0.60735918  0.42135842  0.07688472     0.10950
H2599       H  0.57515547  0.41902998  0.12281378     0.10950
H2600       H  0.64140677  0.38307883  0.18264833     0.10950
C2601       C  0.79256679  0.35180911  0.00213455    -0.15180
C2602       C  0.78209719  0.37763375  0.48837490     0.06970
C2603       C  0.79960470  0.40077856  0.48308827    -0.15180
C2604       C  0.82760743  0.39808369  0.49165815    -0.15180
C2605       C  0.83807788  0.37220711  0.00524399     0.06970
C2606       C  0.82058331  0.34906346  0.01053194    -0.15180
H2607       H  0.77883895  0.33412880  0.00713462     0.10950
H2608       H  0.79139260  0.42117450  0.47365700     0.10950
H2609       H  0.84130434  0.41584804  0.48694684     0.10950
H2610       H  0.82875192  0.32873575  0.02018379     0.10950
C2611       C  0.57917792  0.39589230  0.01502388    -0.15180
C2612       C  0.58862202  0.37008914  0.50016699     0.06970
C2613       C  0.56878417  0.35108250  0.98783987    -0.15180
C2614       C  0.54027946  0.35767643  0.99035469    -0.15180
C2615       C  0.53081745  0.38357160  0.00498273     0.06970
C2616       C  0.55060102  0.40251803  0.01755242    -0.15180
H2617       H  0.59397211  0.41118083  0.52420529     0.10950
H2618       H  0.57531129  0.33094244  0.47646417     0.10950
H2619       H  0.52559121  0.34250133  0.98057279     0.10950
H2620       H  0.54402588  0.42273006  0.02869322     0.10950
C2621       C  0.78547344  0.14699193  0.36369264    -0.15180
C2622       C  0.77194327  0.14534130  0.39347164     0.06970
C2623       C  0.74293920  0.14928152  0.39499690    -0.15180
C2624       C  0.72727043  0.15218662  0.36644795    -0.15180
C2625       C  0.74056726  0.15020580  0.33635777     0.06970
C2626       C  0.76981891  0.14933829  0.33517875    -0.15180
H2627       H  0.80787682  0.14377901  0.36230556     0.10950
H2628       H  0.73231675  0.14779181  0.41797570     0.10950
H2629       H  0.70473517  0.15245926  0.36782469     0.10950
H2630       H  0.78039805  0.14758291  0.31218268     0.10950
C2631       C  0.73741817  0.15164090  0.10171699    -0.15180
C2632       C  0.76601324  0.15126776  0.10854943     0.06970
C2633       C  0.77519172  0.15713894  0.14020624    -0.15180
C2634       C  0.75587919  0.16014581  0.16544081    -0.15180
C2635       C  0.72732289  0.15691280  0.15930666     0.06970
C2636       C  0.71823380  0.15477678  0.12683855    -0.15180
H2637       H  0.72995979  0.14766823  0.07729711     0.10950
H2638       H  0.79728179  0.15757880  0.14572329     0.10950
H2639       H  0.76346160  0.16165644  0.19001073     0.10950
H2640       H  0.69637925  0.15162275  0.12140550     0.10950
C2641       C  0.89793517  0.08468578  0.41144477    -0.15180
C2642       C  0.86886502  0.08842265  0.40787763     0.06970
C2643       C  0.85733445  0.08695730  0.37661225    -0.15180
C2644       C  0.87454333  0.08503531  0.34943976    -0.15180
C2645       C  0.90375482  0.08415521  0.35276630     0.06970
C2646       C  0.91524559  0.08214336  0.38414444    -0.15180
H2647       H  0.90752031  0.08645102  0.43501004     0.10950
H2648       H  0.83514297  0.09070287  0.37294536     0.10950
H2649       H  0.86502088  0.08697120  0.32572406     0.10950
H2650       H  0.93764639  0.08193513  0.38760567     0.10950
C2651       C  0.90436791  0.10199165  0.08345768    -0.15180
C2652       C  0.87703787  0.09203828  0.08658011     0.06970
C2653       C  0.87095304  0.07465838  0.11328000    -0.15180
C2654       C  0.89059854  0.07060281  0.13835406    -0.15180
C2655       C  0.91676218  0.08390970  0.13726652     0.06970
C2656       C  0.92433770  0.09708973  0.10814307    -0.15180
H2657       H  0.90975031  0.11538052  0.06315578     0.10950
H2658       H  0.85008978  0.06675531  0.11638865     0.10950
H2659       H  0.88410015  0.05978749  0.16022037     0.10950
H2660       H  0.94467165  0.10624606  0.10590612     0.10950
C2661       C  0.75511025  0.01849707  0.98112621    -0.15180
C2662       C  0.76743378  0.02728914  0.01048072     0.06970
C2663       C  0.76414664  0.50969344  0.53803656    -0.15180
C2664       C  0.74889105  0.48428523  0.53643761    -0.15180
C2665       C  0.73645236  0.47551208  0.50721393     0.06970
C2666       C  0.73990276  0.99288861  0.47949237    -0.15180
H2667       H  0.75698414  0.03153434  0.95947755     0.10950
H2668       H  0.77320685  0.51565366  0.56112936     0.10950
H2669       H  0.74704829  0.47136048  0.55817797     0.10950
H2670       H  0.73082200  0.98670829  0.45648361     0.10950
C2671       C  0.86541236  0.23545509  0.46115974    -0.15180
C2672       C  0.84877250  0.22852380  0.98793980     0.06970
C2673       C  0.84873045  0.24703084  0.01492318    -0.15180
C2674       C  0.86578479  0.27102566  0.01579643    -0.15180
C2675       C  0.88295619  0.27756862  0.98947387     0.06970
C2676       C  0.88206797  0.25999354  0.46174848    -0.15180
H2677       H  0.86614089  0.22146356  0.44013399     0.10950
H2678       H  0.83651051  0.24224041  0.03612309     0.10950
H2679       H  0.86546010  0.28456440  0.03721278     0.10950
H2680       H  0.89473951  0.26479654  0.44092832     0.10950
C2681       C  0.51026057  0.17536454  0.37188503    -0.15180
C2682       C  0.50675834  0.15719178  0.39868006     0.06970
C2683       C  0.98051011  0.14545083  0.40407475    -0.15180
C2684       C  0.95845705  0.15068411  0.38237363    -0.15180
C2685       C  0.96262949  0.16648728  0.35394747     0.06970
C2686       C  0.48850491  0.17947570  0.34928989    -0.15180
H2687       H  0.53036889  0.18454746  0.36718698     0.10950
H2688       H  0.97727033  0.13109755  0.42420754     0.10950
H2689       H  0.93913324  0.13954860  0.38589113     0.10950
H2690       H  0.49261224  0.19068564  0.32682949     0.10950
C2691       C  0.96089456  0.16100298  0.11366376    -0.15180
C2692       C  0.97014496  0.17014531  0.14421183     0.06970
C2693       C  0.49864455  0.17652417  0.14809611    -0.15180
C2694       C  0.51796025  0.16899543  0.12406669    -0.15180
C2695       C  0.50900576  0.15505866  0.09593298     0.06970
C2696       C  0.98027142  0.15266707  0.09002772    -0.15180
H2697       H  0.93904440  0.15700653  0.10942707     0.10950
H2698       H  0.50650091  0.18426246  0.17111063     0.10950
H2699       H  0.53999652  0.17161792  0.12874549     0.10950
H2700       H  0.97290550  0.14263942  0.06796203     0.10950
C2701       C  0.62301508  0.09138674  0.34830706    -0.15180
C2702       C  0.65114825  0.09795397  0.35200591     0.06970
C2703       C  0.66267972  0.10036116  0.38321708    -0.15180
C2704       C  0.64538853  0.09961537  0.41031088    -0.15180
C2705       C  0.61667636  0.09579078  0.40626239     0.06970
C2706       C  0.60583221  0.09035117  0.37529099    -0.15180
H2707       H  0.61414992  0.08810637  0.32451547     0.10950
H2708       H  0.68456952  0.10482184  0.38645764     0.10950
H2709       H  0.65395712  0.10453512  0.43395990     0.10950
H2710       H  0.58360950  0.08798855  0.37168687     0.10950
C2711       C  0.59446487  0.08078322  0.12260714    -0.15180
C2712       C  0.60741605  0.08466924  0.09262506     0.06970
C2713       C  0.63638840  0.08117389  0.09041019    -0.15180
C2714       C  0.65253230  0.07738160  0.11833852    -0.15180
C2715       C  0.63975036  0.07749651  0.14868420     0.06970
C2716       C  0.61065368  0.07757717  0.15074423    -0.15180
H2717       H  0.57215546  0.08424580  0.12483504     0.10950
H2718       H  0.64673034  0.08498888  0.06779815     0.10950
H2719       H  0.67503775  0.07801137  0.11653107     0.10950
H2720       H  0.60060921  0.07822446  0.17414592     0.10950
C2721       C  0.98960354  0.02945167  0.01206581    -0.15180
C2722       C  0.50795723  0.03416610  0.98626703     0.06970
C2723       C  0.50898340  0.51389937  0.46086734    -0.15180
C2724       C  0.99258840  0.48936780  0.46141494    -0.15180
C2725       C  0.97450934  0.48427700  0.98734250     0.06970
C2726       C  0.97302693  0.00478590  0.01257840    -0.15180
H2727       H  0.98796411  0.04485716  0.03175353     0.10950
H2728       H  0.52269107  0.51685055  0.44048073     0.10950
H2729       H  0.99456197  0.47401879  0.44170475     0.10950
H2730       H  0.95960764  0.00141285  0.03313270     0.10950
C2731       C  0.95555694  0.16290073  0.50343468    -0.15180
C2732       C  0.96726196  0.13725887  0.49087559     0.06970
C2733       C  0.95065046  0.11348359  0.98460171    -0.15180
C2734       C  0.92264988  0.11493740  0.99186597    -0.15180
C2735       C  0.91069280  0.14054770  0.50408821     0.06970
C2736       C  0.92715383  0.16466659  0.50973389    -0.15180
H2737       H  0.96848574  0.18111019  0.50911220     0.10950
H2738       H  0.95965665  0.09315694  0.97611287     0.10950
H2739       H  0.91041182  0.09579691  0.98869777     0.10950
H2740       H  0.91814987  0.18463472  0.51913252     0.10950
C2741       C  0.67790436  0.15701698  0.98281120    -0.15180
C2742       C  0.66020538  0.13561019  0.99430079     0.06970
C2743       C  0.67209312  0.11100402  0.50951886    -0.15180
C2744       C  0.70085669  0.10835126  0.51449026    -0.15180
C2745       C  0.71848532  0.12973633  0.00311337     0.06970
C2746       C  0.70682366  0.15391760  0.98683897    -0.15180
H2747       H  0.66942000  0.17618853  0.97085921     0.10950
H2748       H  0.65912991  0.09354697  0.51709392     0.10950
H2749       H  0.70942841  0.08895263  0.52593870     0.10950
H2750       H  0.72011401  0.17038805  0.97722336     0.10950
C2751       C  0.61885373  0.23324525  0.04137119    -0.15180
C2752       C  0.60324734  0.22624415  0.51357917     0.06970
C2753       C  0.60667221  0.24230671  0.48505534    -0.15180
C2754       C  0.62587214  0.26434920  0.48402209    -0.15180
C2755       C  0.64147871  0.27127653  0.51167939     0.06970
C2756       C  0.63743181  0.25607353  0.04060794    -0.15180
H2757       H  0.61687723  0.22089700  0.06351508     0.10950
H2758       H  0.59533302  0.23709099  0.46310095     0.10950
H2759       H  0.62800394  0.27656375  0.46178908     0.10950
H2760       H  0.64878023  0.26173389  0.06240406     0.10950
O2761       O  0.59531746  0.17829921  0.53011523    -0.81970
O2762       O  0.50814982  0.11529048  0.97105230    -0.81990
O2763       O  0.54184096  0.16913445  0.93708079    -0.82000
O2764       O  0.52609565  0.11383620  0.56761395    -0.81940
O2765       O  0.53832255  0.12281091  0.92289638    -0.82070
O2766       O  0.54712487  0.15504347  0.55798053    -0.81990
O2767       O  0.51116232  0.14185214  0.51348307    -0.81970
O2768       O  0.57026160  0.19557061  0.98916059    -0.82010
C2769       C  0.58753270  0.19933272  0.01211599     1.07720
C2770       C  0.99705867  0.13246858  0.99079940     1.07600
C2771       C  0.53041562  0.14941543  0.92035093     1.07740
C2772       C  0.52904683  0.14050037  0.57411433     1.07620
O2773       O  0.59778965  0.13044214  0.57096420    -0.81970
O2774       O  0.58674612  0.09285084  0.95195636    -0.82050
O2775       O  0.61850625  0.16002486  0.97561830    -0.81980
O2776       O  0.52710226  0.07813611  0.50938978    -0.81960
O2777       O  0.53477556  0.06743638  0.95655790    -0.82020
O2778       O  0.61445905  0.12313462  0.50894399    -0.81980
O2779       O  0.57684442  0.09400912  0.54666840    -0.81940
O2780       O  0.59050993  0.13458116  0.92583141    -0.82010
Co2781     Co  0.58054003  0.13837209  0.53078391     1.51530
Co2782     Co  0.54848404  0.10404205  0.96554442     1.51690
Co2783     Co  0.57905492  0.16416007  0.95833826     1.51570
Co2784     Co  0.54369251  0.11814622  0.52676405     1.51470
O2785       O  0.56186058  0.13622267  0.48850308    -1.43910
C2786       C  0.59330218  0.10357001  0.56912215     1.07650
C2787       C  0.59758328  0.10815874  0.93003535     1.07740
C2788       C  0.62949975  0.13946212  0.49226469     1.07670
C2789       C  0.52462805  0.06085442  0.48416132     1.07650
O2790       O  0.78989497  0.06345235  0.54170874    -0.81970
O2791       O  0.86602479  0.12386391  0.99509133    -0.81990
O2792       O  0.83646591  0.09279875  0.95382517    -0.82000
O2793       O  0.84614939  0.13103092  0.57336189    -0.81940
O2794       O  0.85374537  0.13195034  0.93186700    -0.82070
O2795       O  0.84096105  0.09035106  0.54575207    -0.81990
O2796       O  0.86962296  0.16226809  0.52512152    -0.81970
O2797       O  0.78515531  0.07219072  0.98798489    -0.82010
C2798       C  0.78203766  0.05542077  0.51344850     1.07720
C2799       C  0.88081951  0.14204625  0.00901917     1.07600
C2800       C  0.85255346  0.10466224  0.93249133     1.07740
C2801       C  0.85385178  0.10506120  0.56696336     1.07620
O2802       O  0.79321449  0.11760397  0.57762410    -0.81970
O2803       O  0.80085597  0.15106690  0.94043792    -0.82050
O2804       O  0.76305256  0.13193505  0.98030552    -0.81980
O2805       O  0.81999372  0.19456985  0.51430421    -0.81960
O2806       O  0.84460557  0.17930631  0.97232388    -0.82020
O2807       O  0.76063337  0.11083069  0.52698193    -0.81980
O2808       O  0.79500343  0.16440982  0.56545202    -0.81940
O2809       O  0.78589303  0.10725877  0.92850683    -0.82010
Co2810     Co  0.80164227  0.10103589  0.53341015     1.51530
Co2811     Co  0.83333943  0.13768714  0.97047984     1.51690
Co2812     Co  0.79956788  0.11306886  0.97129643     1.51570
Co2813     Co  0.83119450  0.16194554  0.54298466     1.51470
O2814       O  0.81310547  0.13461051  0.51121937    -1.43910
C2815       C  0.78590977  0.14403721  0.58270875     1.07650
C2816       C  0.78726299  0.13403155  0.92150580     1.07740
C2817       C  0.74889606  0.12458052  0.50401598     1.07670
C2818       C  0.83581044  0.19980815  0.99052794     1.07650
O2819       O  0.65200254  0.31733757  0.53127182    -0.81970
O2820       O  0.73758926  0.38949779  0.96399210    -0.81990
O2821       O  0.70121038  0.33216099  0.93688767    -0.82000
O2822       O  0.71923497  0.37613655  0.56550174    -0.81940
O2823       O  0.72052329  0.37636695  0.94078360    -0.82070
O2824       O  0.70201482  0.33423439  0.55515777    -0.81990
O2825       O  0.74055301  0.38115325  0.51504103    -0.81970
O2826       O  0.67358598  0.30229689  0.98711265    -0.82010
C2827       C  0.65786538  0.29751257  0.01104063     1.07720
C2828       C  0.75239256  0.38300367  0.98861723     1.07600
C2829       C  0.71968949  0.35018707  0.92878040     1.07740
C2830       C  0.71949682  0.34914944  0.57031710     1.07620
O2831       O  0.65546125  0.36259808  0.57581346    -0.81970
O2832       O  0.67521991  0.41007730  0.93974863    -0.82050
O2833       O  0.62757533  0.34203086  0.98071125    -0.81980
O2834       O  0.71753071  0.43262622  0.53149706    -0.81960
O2835       O  0.71374227  0.43745800  0.97768151    -0.82020
O2836       O  0.63591769  0.37584245  0.51606031    -0.81980
O2837       O  0.66717382  0.40450609  0.55260380    -0.81940
O2838       O  0.65340529  0.36922286  0.93230539    -0.82010
Co2839     Co  0.66969572  0.35561222  0.53494238     1.51530
Co2840     Co  0.69845647  0.39776543  0.97781585     1.51690
Co2841     Co  0.66587580  0.33774086  0.96143795     1.51570
Co2842     Co  0.70236479  0.39320529  0.52531638     1.51470
O2843       O  0.68819595  0.35942359  0.99587787    -1.43910
C2844       C  0.65611924  0.39005048  0.57628733     1.07650
C2845       C  0.65697801  0.39537255  0.92553167     1.07740
C2846       C  0.61884130  0.36258815  0.99851249     1.07670
C2847       C  0.72153765  0.44753921  0.00543781     1.07650
O2848       O  0.94457911  0.45068989  0.51347288    -0.81970
O2849       O  0.88076634  0.36793399  0.98040086    -0.81990
O2850       O  0.91968055  0.41565334  0.94042917    -0.82000
O2851       O  0.89787286  0.37380164  0.55606972    -0.81940
O2852       O  0.90502756  0.37245017  0.93138201    -0.82070
O2853       O  0.91508598  0.41872103  0.56211505    -0.81990
O2854       O  0.88168457  0.36167524  0.53179051    -0.81970
O2855       O  0.96763192  0.43580391  0.97000189    -0.82010
C2856       C  0.96058897  0.45590316  0.98978454     1.07720
C2857       C  0.86782621  0.36711343  0.50628797     1.07600
C2858       C  0.90280351  0.39924235  0.92607704     1.07740
C2859       C  0.89775137  0.39928660  0.56971119     1.07620
O2860       O  0.96303088  0.38227951  0.56743799    -0.81970
O2861       O  0.95772563  0.34674288  0.94873252    -0.82050
O2862       O  0.98433803  0.37733451  0.98735984    -0.81980
O2863       O  0.90610222  0.31452237  0.51886712    -0.81960
O2864       O  0.90648287  0.31754416  0.96492358    -0.82020
O2865       O  0.99082302  0.41188169  0.52195395    -0.81980
O2866       O  0.94218222  0.34119911  0.55819909    -0.81940
O2867       O  0.97036076  0.38836325  0.92542180    -0.82010
Co2868     Co  0.95143955  0.41448219  0.53865737     1.51530
Co2869     Co  0.92020330  0.35720656  0.97289156     1.51690
Co2870     Co  0.95183464  0.39631294  0.96448031     1.51570
Co2871     Co  0.92097078  0.35400910  0.51915049     1.51470
O2872       O  0.93108546  0.39275021  0.50197781    -1.43910
C2873       C  0.95942263  0.35597866  0.57375112     1.07650
C2874       C  0.97184799  0.36080669  0.92694851     1.07740
C2875       C  0.00057708  0.39115249  0.50522152     1.07670
C2876       C  0.89992359  0.30388030  0.49094409     1.07650
O2877       O  0.70578057  0.11569328  0.67563934    -0.81970
O2878       O  0.70070716  0.14916482  0.80168869    -0.81990
O2879       O  0.64601345  0.16738890  0.71730961    -0.82000
O2880       O  0.75018176  0.07176718  0.75910541    -0.81940
O2881       O  0.66364923  0.17850468  0.76489376    -0.82070
O2882       O  0.74598434  0.09859487  0.71660624    -0.81990
O2883       O  0.73506124  0.11863076  0.79314736    -0.81970
O2884       O  0.70171193  0.15100076  0.70978868    -0.82010
C2885       C  0.71084522  0.14120341  0.68316839     1.07720
C2886       C  0.72483258  0.13967664  0.80841096     1.07600
C2887       C  0.64871358  0.18591274  0.74030032     1.07740
C2888       C  0.76025223  0.08972870  0.74031475     1.07620
O2889       O  0.71708761  0.04360607  0.72467701    -0.81970
O2890       O  0.64057077  0.13044654  0.78148619    -0.82050
O2891       O  0.65636256  0.11310175  0.68375199    -0.81980
O2892       O  0.68867535  0.08652338  0.81840347    -0.81960
O2893       O  0.66080103  0.12372306  0.80357099    -0.82020
O2894       O  0.67304076  0.06817210  0.68991433    -0.81980
O2895       O  0.70224495  0.04318982  0.77536549    -0.81940
O2896       O  0.63283399  0.11103240  0.73610256    -0.82010
Co2897     Co  0.70931034  0.08227439  0.70483109     1.51530
Co2898     Co  0.67903509  0.13879868  0.76220103     1.51690
Co2899     Co  0.66774658  0.13060302  0.72627422     1.51570
Co2900     Co  0.71665356  0.08175491  0.78418729     1.51470
O2901       O  0.69152487  0.09804574  0.74662529    -1.43910
C2902       C  0.71269008  0.03027936  0.75105798     1.07650
C2903       C  0.62328108  0.11823799  0.76272916     1.07740
C2904       C  0.65635267  0.08623890  0.67646405     1.07670
C2905       C  0.66807258  0.10316688  0.82333123     1.07650
O2906       O  0.91515072  0.09329709  0.69271373    -0.81970
O2907       O  0.94619996  0.08457477  0.82106512    -0.81990
O2908       O  0.97965813  0.07861802  0.72390626    -0.82000
O2909       O  0.88083214  0.14966202  0.77264598    -0.81940
O2910       O  0.94466250  0.06718551  0.75601260    -0.82070
O2911       O  0.88201588  0.11448560  0.73740340    -0.81990
O2912       O  0.90990561  0.11067809  0.80404116    -0.81970
O2913       O  0.95400736  0.10429126  0.67050608    -0.82010
C2914       C  0.93048589  0.09204784  0.66851543     1.07720
C2915       C  0.92102878  0.09292399  0.82477734     1.07600
C2916       C  0.96610985  0.05979851  0.73960860     1.07740
C2917       C  0.86895272  0.12923013  0.75801190     1.07620
O2918       O  0.89530902  0.17335318  0.71986477    -0.81970
O2919       O  0.48940206  0.09817576  0.78043154    -0.82050
O2920       O  0.96690214  0.16076138  0.69960789    -0.81980
O2921       O  0.92114134  0.16594746  0.82014576    -0.81960
O2922       O  0.95892926  0.14014704  0.80618610    -0.82020
O2923       O  0.92960233  0.15214712  0.67130944    -0.81980
O2924       O  0.92676583  0.18483504  0.75668097    -0.81940
O2925       O  0.49596108  0.13475157  0.74844063    -0.82010
Co2926     Co  0.90675336  0.13269072  0.70699771     1.51530
Co2927     Co  0.94797217  0.10406339  0.77975314     1.51690
Co2928     Co  0.97267304  0.12040833  0.71224137     1.51570
Co2929     Co  0.92260003  0.14716835  0.77866261     1.51470
O2930       O  0.93793537  0.12625914  0.73927628    -1.43910
C2931       C  0.90639164  0.19212455  0.73821695     1.07650
C2932       C  0.50548906  0.11645345  0.76856345     1.07740
C2933       C  0.95363222  0.16340100  0.67348881     1.07670
C2934       C  0.94643265  0.15802117  0.82537799     1.07650
O2935       O  0.52835133  0.38138856  0.68330778    -0.81970
O2936       O  0.56414893  0.33999212  0.81415271    -0.81990
O2937       O  0.58185233  0.31074794  0.71751243    -0.82000
O2938       O  0.99425516  0.38084055  0.75992141    -0.81940
O2939       O  0.59572429  0.31407694  0.76899611    -0.82070
O2940       O  0.99842257  0.41519329  0.72397148    -0.81990
O2941       O  0.52376750  0.34909387  0.79657132    -0.81970
O2942       O  0.52890027  0.34067734  0.71148604    -0.82010
C2943       C  0.52150033  0.35509053  0.68642997     1.07720
C2944       C  0.53855018  0.33951328  0.81908493     1.07600
C2945       C  0.59480276  0.29957621  0.74227575     1.07740
C2946       C  0.98488494  0.39500179  0.73626046     1.07620
O2947       O  0.54669380  0.44536281  0.74289207    -0.81970
O2948       O  0.61007501  0.37041434  0.77826947    -0.82050
O2949       O  0.57797292  0.36714155  0.68361052    -0.81980
O2950       O  0.55530194  0.40051932  0.82104399    -0.81960
O2951       O  0.59324482  0.37733031  0.80093247    -0.82020
O2952       O  0.57767389  0.41281979  0.69929769    -0.81980
O2953       O  0.51768493  0.43382447  0.78176724    -0.81940
O2954       O  0.60800899  0.35937383  0.72859796    -0.82010
Co2955     Co  0.53920948  0.41232636  0.71460093     1.51530
Co2956     Co  0.57411966  0.35128441  0.76838091     1.51690
Co2957     Co  0.56702946  0.35033841  0.72673650     1.51570
Co2958     Co  0.52453156  0.39093146  0.78839551     1.51470
O2959       O  0.55232110  0.38624220  0.75200904    -1.43910
C2960       C  0.52784933  0.45256195  0.76283497     1.07650
C2961       C  0.62250898  0.36779823  0.75174001     1.07740
C2962       C  0.58611512  0.39307299  0.68045486     1.07670
C2963       C  0.58164862  0.39480405  0.82160572     1.07650
O2964       O  0.83172717  0.37887466  0.69160532    -0.81970
O2965       O  0.79943478  0.38724788  0.82897488    -0.81990
O2966       O  0.80111467  0.42195093  0.74444029    -0.82000
O2967       O  0.86542441  0.37608051  0.75455254    -0.81940
O2968       O  0.76858894  0.40991130  0.77972003    -0.82070
O2969       O  0.86288599  0.34050613  0.71998104    -0.81990
O2970       O  0.83588444  0.39818322  0.80166001    -0.81970
O2971       O  0.79472267  0.40616229  0.67924844    -0.82010
C2972       C  0.81961140  0.39790537  0.67318919     1.07720
C2973       C  0.82241619  0.40059450  0.82720103     1.07600
C2974       C  0.78129684  0.42883179  0.76354710     1.07740
C2975       C  0.87564829  0.36178058  0.73153398     1.07620
O2976       O  0.81991198  0.30488171  0.74174448    -0.81970
O2977       O  0.75238744  0.35343275  0.75723439    -0.82050
O2978       O  0.78343660  0.34994747  0.69354880    -0.81980
O2979       O  0.82346372  0.34006584  0.82797821    -0.81960
O2980       O  0.78562658  0.32893574  0.80276951    -0.82020
O2981       O  0.82014208  0.32367301  0.67733611    -0.81980
O2982       O  0.85359866  0.31754299  0.77552751    -0.81940
O2983       O  0.75453611  0.39060003  0.72493563    -0.82010
Co2984     Co  0.82126014  0.34244437  0.71876593     1.51530
Co2985     Co  0.77762356  0.36887747  0.79050297     1.51690
Co2986     Co  0.79602417  0.38571135  0.72020555     1.51570
Co2987     Co  0.84324347  0.35840181  0.78836215     1.51470
O2988       O  0.80955901  0.36349642  0.75941865    -1.43910
C2989       C  0.84150385  0.29830107  0.75872247     1.07650
C2990       C  0.74034561  0.37164858  0.73887647     1.07740
C2991       C  0.79494695  0.33232278  0.67314027     1.07670
C2992       C  0.79948430  0.32846268  0.82843384     1.07650
C2993       C  0.93666038  0.40798918  0.71938064    -0.15180
C2994       C  0.95775482  0.38706866  0.72398552     0.06970
C2995       C  0.95147257  0.35760192  0.72392646    -0.15180
C2996       C  0.92418072  0.34892876  0.72068451    -0.15180
C2997       C  0.90283033  0.36985790  0.72018829     0.06970
C2998       C  0.90909235  0.39938392  0.71852469    -0.15180
H2999       H  0.94116982  0.43080879  0.72049538     0.10950
H3000       H  0.96754272  0.34136506  0.72916829     0.10950
H3001       H  0.91962550  0.32620159  0.72312865     0.10950
H3002       H  0.89269075  0.41579273  0.71997885     0.10950
C3003       C  0.66636067  0.39597611  0.75379798    -0.15180
C3004       C  0.65253812  0.37018788  0.74788589     0.06970
C3005       C  0.66732275  0.34599671  0.73586348    -0.15180
C3006       C  0.69592512  0.34699431  0.73124412    -0.15180
C3007       C  0.70996147  0.37250701  0.73758608     0.06970
C3008       C  0.69506730  0.39721137  0.74833828    -0.15180
H3009       H  0.65502602  0.41497304  0.76236720     0.10950
H3010       H  0.65675329  0.32603631  0.73081693     0.10950
H3011       H  0.70723171  0.32769201  0.72343411     0.10950
H3012       H  0.70585920  0.41691419  0.75394731     0.10950
C3013       C  0.97281315  0.01280218  0.76987704    -0.15180
C3014       C  0.97965359  0.03079749  0.74379850     0.06970
C3015       C  0.50335473  0.02349490  0.72537088    -0.15180
C3016       C  0.51996563  0.99917389  0.73296305    -0.15180
C3017       C  0.51325895  0.48113119  0.75902937     0.06970
C3018       C  0.98938192  0.48820319  0.77734661    -0.15180
H3019       H  0.95512019  0.01813777  0.78505139     0.10950
H3020       H  0.50952372  0.03701839  0.70535534     0.10950
H3021       H  0.53776288  0.99416330  0.71782463     0.10950
H3022       H  0.98324046  0.47448308  0.79718638     0.10950
C3023       C  0.89528240  0.23725125  0.77027071    -0.15180
C3024       C  0.89147573  0.22059345  0.74216454     0.06970
C3025       C  0.86985937  0.22893467  0.72046722    -0.15180
C3026       C  0.85255580  0.25319285  0.72668836    -0.15180
C3027       C  0.85635055  0.26981874  0.75480879     0.06970
C3028       C  0.87800555  0.26152725  0.77646343    -0.15180
H3029       H  0.91119637  0.23113398  0.78792495     0.10950
H3030       H  0.86605630  0.21643668  0.69876333     0.10950
H3031       H  0.83666459  0.25935768  0.70902568     0.10950
H3032       H  0.88181927  0.27406155  0.79814283     0.10950
C3033       C  0.73875530  0.48871994  0.72734945    -0.15180
C3034       C  0.72708554  0.50202416  0.75492119     0.06970
C3035       C  0.73534612  0.49212208  0.78583141    -0.15180
C3036       C  0.75509085  0.46954845  0.78894354    -0.15180
C3037       C  0.76728368  0.45707582  0.76127833     0.06970
C3038       C  0.75893262  0.46680217  0.73051647    -0.15180
H3039       H  0.73296611  0.49594681  0.70317701     0.10950
H3040       H  0.72724337  0.00235603  0.80751777     0.10950
H3041       H  0.76051234  0.46141148  0.81287641     0.10950
H3042       H  0.76697131  0.45644073  0.70886082     0.10950
C3043       C  0.61727751  0.22408113  0.71393997    -0.15180
C3044       C  0.63511991  0.21511815  0.73944771     0.06970
C3045       C  0.63988745  0.23439473  0.76514430    -0.15180
C3046       C  0.62693704  0.26170979  0.76568909    -0.15180
C3047       C  0.60886460  0.27068118  0.74050419     0.06970
C3048       C  0.60430327  0.25169055  0.71442744    -0.15180
H3049       H  0.61320240  0.20973075  0.69382477     0.10950
H3050       H  0.65359398  0.22833802  0.78514584     0.10950
H3051       H  0.63111109  0.27582773  0.78600080     0.10950
H3052       H  0.59045113  0.25801468  0.69466907     0.10950
C3053       C  0.80847023  0.08200850  0.75948193    -0.15180
C3054       C  0.78761899  0.10096602  0.74776852     0.06970
C3055       C  0.79240178  0.13074100  0.74621470    -0.15180
C3056       C  0.81872354  0.14117501  0.75380421    -0.15180
C3057       C  0.84016584  0.12173722  0.76305121     0.06970
C3058       C  0.83467342  0.09227608  0.76665228    -0.15180
H3059       H  0.80484733  0.05905623  0.76160500     0.10950
H3060       H  0.77580005  0.14577881  0.73938667     0.10950
H3061       H  0.82284404  0.16387859  0.75020974     0.10950
H3062       H  0.85130756  0.07682961  0.77249608     0.10950
C3063       C  0.57903248  0.09302136  0.75326112    -0.15180
C3064       C  0.59389881  0.11377237  0.77059694     0.06970
C3065       C  0.57949143  0.13308683  0.79117836    -0.15180
C3066       C  0.55032204  0.13316470  0.79219830    -0.15180
C3067       C  0.53559248  0.11342004  0.77332466     0.06970
C3068       C  0.55008873  0.09272597  0.75482037    -0.15180
H3069       H  0.58970592  0.07796710  0.73721607     0.10950
H3070       H  0.59059576  0.14939385  0.80454342     0.10950
H3071       H  0.53926605  0.14936336  0.80642360     0.10950
H3072       H  0.53890535  0.07752155  0.73993155     0.10950
C3073       C  0.51968320  0.35396754  0.90513732    -0.15180
C3074       C  0.99161760  0.34592614  0.90505248     0.06970
C3075       C  0.98150432  0.32962417  0.87910250    -0.15180
C3076       C  0.99831679  0.32426223  0.85204585    -0.15180
C3077       C  0.52568606  0.33448719  0.85095157     0.06970
C3078       C  0.53681822  0.34761235  0.87862659    -0.15180
H3079       H  0.52769063  0.36727707  0.92447799     0.10950
H3080       H  0.95979888  0.32376292  0.87821766     0.10950
H3081       H  0.98914154  0.31441894  0.83080107     0.10950
H3082       H  0.55766972  0.35595548  0.87825433     0.10950
C3083       C  0.50551002  0.34945281  0.59915651    -0.15180
C3084       C  0.97707474  0.34339393  0.59978468     0.06970
C3085       C  0.96571730  0.33212746  0.62827716    -0.14940
C3086       C  0.98187372  0.33088078  0.65694164    -0.15180
C3087       C  0.50891993  0.34186552  0.65728194     0.06970
C3088       C  0.52126319  0.34864946  0.62758069    -0.15180
H3089       H  0.51480501  0.35785117  0.57733383     0.10950
H3090       H  0.94384678  0.32700130  0.62917793     0.10950
H3091       H  0.97241219  0.32372984  0.67896840     0.10950
H3092       H  0.54228055  0.35667627  0.62695396     0.10950
C3093       C  0.85241811  0.40088342  0.91085261    -0.15180
C3094       C  0.87971487  0.40979852  0.90465559     0.06970
C3095       C  0.88497103  0.42341234  0.87513100    -0.15180
C3096       C  0.86427984  0.42447032  0.85082453    -0.15180
C3097       C  0.83791205  0.41213755  0.85576434     0.06970
C3098       C  0.83138304  0.40329236  0.88714125    -0.15180
H3099       H  0.84786539  0.38994411  0.93318031     0.10950
H3100       H  0.90576240  0.43041727  0.86961170     0.10950
H3101       H  0.86996439  0.43216480  0.82703767     0.10950
H3102       H  0.81091593  0.39543643  0.89234899     0.10950
C3103       C  0.84784748  0.39782172  0.58877013    -0.15180
C3104       C  0.87561994  0.40591649  0.59417641     0.06970
C3105       C  0.88251892  0.41747397  0.62460000    -0.15180
C3106       C  0.86285938  0.41823134  0.64973637    -0.15180
C3107       C  0.83572137  0.40811423  0.64492998     0.06970
C3108       C  0.82804020  0.39935250  0.61365887    -0.15180
H3109       H  0.84160946  0.38915280  0.56573153     0.10950
H3110       H  0.90365119  0.42391966  0.62968228     0.10950
H3111       H  0.86925519  0.42521606  0.67352019     0.10950
H3112       H  0.80739557  0.39127671  0.60917624     0.10950
C3113       C  0.75581462  0.31426685  0.85674079    -0.15180
C3114       C  0.78311910  0.32492060  0.85885362     0.06970
C3115       C  0.79037648  0.34007685  0.88692640    -0.15180
C3116       C  0.76988713  0.34858179  0.90943260    -0.15180
C3117       C  0.74202845  0.34007495  0.90590003     0.06970
C3118       C  0.73569290  0.32143643  0.88014547    -0.15180
H3119       H  0.74934652  0.30223365  0.83558216     0.10950
H3120       H  0.81143897  0.34732728  0.89004860     0.10950
H3121       H  0.77588339  0.36238480  0.92900950     0.10950
H3122       H  0.71465744  0.31392969  0.87688603     0.10950
C3123       C  0.73061081  0.32467212  0.62288357    -0.15180
C3124       C  0.73975448  0.33610486  0.59348706     0.06970
C3125       C  0.76844864  0.33938294  0.58873778    -0.15180
C3126       C  0.78760397  0.33303352  0.61372849    -0.15180
C3127       C  0.77815023  0.32486413  0.64438408     0.06970
C3128       C  0.74962838  0.31951344  0.64832689    -0.15180
H3129       H  0.70854531  0.32236897  0.62719695     0.10950
H3130       H  0.77585857  0.34864818  0.56645636     0.10950
H3131       H  0.80934849  0.33782768  0.61025122     0.10950
H3132       H  0.74174936  0.31385330  0.67196741     0.10950
C3133       C  0.62894856  0.40769396  0.84216090    -0.15180
C3134       C  0.60007096  0.40597161  0.84771866     0.06970
C3135       C  0.59048449  0.40876765  0.87964045    -0.15180
C3136       C  0.60958719  0.40915616  0.90560175    -0.15180
C3137       C  0.63850059  0.40764572  0.90000238     0.06970
C3138       C  0.64797895  0.40851166  0.86804844    -0.15180
H3139       H  0.63703181  0.40592137  0.81784655     0.10950
H3140       H  0.56845724  0.40756781  0.88477469     0.10950
H3141       H  0.60180796  0.40785052  0.93012641     0.10950
H3142       H  0.67008607  0.40669235  0.86309276     0.10950
C3143       C  0.65245567  0.39466299  0.63440873    -0.15180
C3144       C  0.64267375  0.40380778  0.60383992     0.06970
C3145       C  0.61529144  0.41459354  0.60035451    -0.15180
C3146       C  0.59688925  0.41272976  0.62629028    -0.15180
C3147       C  0.60600774  0.40005491  0.65549654     0.06970
C3148       C  0.63408682  0.39245144  0.66005379    -0.15180
H3149       H  0.67345159  0.38575147  0.63729530     0.10950
H3150       H  0.60738636  0.42136148  0.57688718     0.10950
H3151       H  0.57517674  0.41903750  0.62281166     0.10950
H3152       H  0.64140990  0.38304995  0.68264663     0.10950
C3153       C  0.79258486  0.35180813  0.50213125    -0.15180
C3154       C  0.78207895  0.37763422  0.98837724     0.06970
C3155       C  0.79958674  0.40077816  0.98308718    -0.15180
C3156       C  0.82758986  0.39808315  0.99165533    -0.15180
C3157       C  0.83809542  0.37220683  0.50524472     0.06970
C3158       C  0.82060106  0.34906253  0.51052996    -0.15180
H3159       H  0.77885704  0.33412750  0.50713003     0.10950
H3160       H  0.79137469  0.42117355  0.97365434     0.10950
H3161       H  0.84128696  0.41584674  0.98694122     0.10950
H3162       H  0.82876964  0.32873436  0.52018064     0.10950
C3163       C  0.57919933  0.39588354  0.51502684    -0.15180
C3164       C  0.58860073  0.37009679  0.00016662     0.06970
C3165       C  0.56880527  0.35107571  0.48783896    -0.15180
C3166       C  0.54030052  0.35766940  0.49035505    -0.15180
C3167       C  0.53083862  0.38356365  0.50498534     0.06970
C3168       C  0.55062244  0.40250921  0.51755622    -0.15180
H3169       H  0.59395061  0.41119047  0.02420050     0.10950
H3170       H  0.57529032  0.33094846  0.97646687     0.10950
H3171       H  0.52561215  0.34249484  0.48057237     0.10950
H3172       H  0.54404750  0.42272041  0.52869899     0.10950
C3173       C  0.78547240  0.14699143  0.86369390    -0.15180
C3174       C  0.77194202  0.14533945  0.89347265     0.06970
C3175       C  0.74293792  0.14927895  0.89499793    -0.15180
C3176       C  0.72726929  0.15218450  0.86644904    -0.15180
C3177       C  0.74056637  0.15020475  0.83635896     0.06970
C3178       C  0.76981801  0.14933813  0.83517999    -0.15180
H3179       H  0.80787584  0.14377910  0.86230693     0.10950
H3180       H  0.73231538  0.14778819  0.91797659     0.10950
H3181       H  0.70473402  0.15245643  0.86782563     0.10950
H3182       H  0.78039726  0.14758360  0.81218390     0.10950
C3183       C  0.73741941  0.15164357  0.60171668    -0.15180
C3184       C  0.76601441  0.15127284  0.60854943     0.06970
C3185       C  0.77519198  0.15714437  0.64020658    -0.15180
C3186       C  0.75587889  0.16014946  0.66544097    -0.15180
C3187       C  0.72732289  0.15691447  0.65930633     0.06970
C3188       C  0.71823452  0.15477773  0.62683798    -0.15180
H3189       H  0.72996159  0.14767032  0.57729670     0.10950
H3190       H  0.79728190  0.15758579  0.64572404     0.10950
H3191       H  0.76346087  0.16166060  0.69001103     0.10950
H3192       H  0.69638030  0.15162216  0.62140445     0.10950
C3193       C  0.89793163  0.08467949  0.91144092    -0.15180
C3194       C  0.86886168  0.08841948  0.90787439     0.06970
C3195       C  0.85733095  0.08695842  0.87660874    -0.15180
C3196       C  0.87453959  0.08503757  0.84943592    -0.15180
C3197       C  0.90375111  0.08415422  0.85276212     0.06970
C3198       C  0.91524178  0.08213810  0.88414011    -0.15180
H3199       H  0.90751705  0.08644123  0.93500648     0.10950
H3200       H  0.83513974  0.09070638  0.87294233     0.10950
H3201       H  0.86501708  0.08697673  0.82572051     0.10950
H3202       H  0.93764263  0.08192711  0.88760128     0.10950
C3203       C  0.90437066  0.10200210  0.58345668    -0.15180
C3204       C  0.87704165  0.09204569  0.58657816     0.06970
C3205       C  0.87095869  0.07466231  0.61327582    -0.15180
C3206       C  0.89060474  0.07060639  0.63834926    -0.15180
C3207       C  0.91676700  0.08391618  0.63726302     0.06970
C3208       C  0.92434111  0.09709953  0.60814106    -0.15180
H3209       H  0.90975162  0.11539376  0.56315664     0.10950
H3210       H  0.85009627  0.06675675  0.61638364     0.10950
H3211       H  0.88410755  0.05978853  0.66021449     0.10950
H3212       H  0.94467412  0.10625807  0.60590502     0.10950
C3213       C  0.75511776  0.01849852  0.48112738    -0.15180
C3214       C  0.76744022  0.02729178  0.51048204     0.06970
C3215       C  0.76413826  0.50969162  0.03803551    -0.15180
C3216       C  0.74887985  0.48428534  0.03643697    -0.15180
C3217       C  0.73644026  0.47551329  0.00721343     0.06970
C3218       C  0.73989246  0.99288898  0.97949159    -0.15180
H3219       H  0.75699035  0.03153622  0.45947887     0.10950
H3220       H  0.77319904  0.51565108  0.06112826     0.10950
H3221       H  0.74703571  0.47136112  0.05817755     0.10950
H3222       H  0.73081103  0.98670939  0.95648293     0.10950
C3223       C  0.86540987  0.23545168  0.96116294    -0.15180
C3224       C  0.84877617  0.22852786  0.48793790     0.06970
C3225       C  0.84873817  0.24703352  0.51492236    -0.15180
C3226       C  0.86579533  0.27102612  0.51579534    -0.15180
C3227       C  0.88296559  0.27756834  0.48947144     0.06970
C3228       C  0.88206265  0.25999222  0.96175192    -0.15180
H3229       H  0.86614145  0.22145925  0.94013805     0.10950
H3230       H  0.83651942  0.24224338  0.53612330     0.10950
H3231       H  0.86547379  0.28456369  0.53721264     0.10950
H3232       H  0.89473517  0.26479571  0.94093274     0.10950
C3233       C  0.51025605  0.17536204  0.87188890    -0.15180
C3234       C  0.50675585  0.15718387  0.89867975     0.06970
C3235       C  0.98050879  0.14543958  0.90407242    -0.15180
C3236       C  0.95845490  0.15067523  0.88237319    -0.15180
C3237       C  0.96262551  0.16648387  0.85395045     0.06970
C3238       C  0.48849972  0.17947537  0.84929514    -0.15180
H3239       H  0.53036340  0.18454788  0.86719273     0.10950
H3240       H  0.97727049  0.13108246  0.92420220     0.10950
H3241       H  0.93913199  0.13953764  0.88588872     0.10950
H3242       H  0.49260572  0.19068961  0.82683709     0.10950
C3243       C  0.96089914  0.16101238  0.61366540    -0.15180
C3244       C  0.97014977  0.17015154  0.64421463     0.06970
C3245       C  0.49865001  0.17652699  0.64810041    -0.15180
C3246       C  0.51796553  0.16899817  0.62407079    -0.15180
C3247       C  0.50901025  0.15506477  0.59593528     0.06970
C3248       C  0.98027575  0.15267647  0.59002903    -0.15180
H3249       H  0.93904863  0.15701842  0.60942766     0.10950
H3250       H  0.50650671  0.18426272  0.67111588     0.10950
H3251       H  0.54000202  0.17161802  0.62875051     0.10950
H3252       H  0.97290930  0.14265130  0.56796216     0.10950
C3253       C  0.62301506  0.09138208  0.84830666    -0.15180
C3254       C  0.65114816  0.09794954  0.85200615     0.06970
C3255       C  0.66267915  0.10035608  0.88321765    -0.15180
C3256       C  0.64538757  0.09960937  0.91031117    -0.15180
C3257       C  0.61667545  0.09578454  0.90626215     0.06970
C3258       C  0.60583185  0.09034557  0.87529031    -0.15180
H3259       H  0.61415018  0.08810243  0.82451478     0.10950
H3260       H  0.68456881  0.10481713  0.88645876     0.10950
H3261       H  0.65395581  0.10452870  0.93396047     0.10950
H3262       H  0.58360921  0.08798286  0.87168567     0.10950
C3263       C  0.59446211  0.08079440  0.62260984    -0.15180
C3264       C  0.60741401  0.08467280  0.59262691     0.06970
C3265       C  0.63638556  0.08116860  0.59041173    -0.15180
C3266       C  0.65252893  0.07737568  0.61834052    -0.15180
C3267       C  0.63974718  0.07749876  0.64868647     0.06970
C3268       C  0.61065041  0.07758774  0.65074703    -0.15180
H3269       H  0.57215347  0.08426351  0.62483766     0.10950
H3270       H  0.64672812  0.08497658  0.56779849     0.10950
H3271       H  0.67503469  0.07799867  0.61653257     0.10950
H3272       H  0.60060625  0.07824116  0.67414875     0.10950
C3273       C  0.98961345  0.02945159  0.51206786    -0.15180
C3274       C  0.50796516  0.03416905  0.48626799     0.06970
C3275       C  0.50897243  0.51389717  0.96086559    -0.15180
C3276       C  0.99257265  0.48936916  0.96141140    -0.15180
C3277       C  0.97452685  0.48427293  0.48734696     0.06970
C3278       C  0.97304150  0.00478243  0.51258210    -0.15180
H3279       H  0.98797199  0.04485727  0.53175519     0.10950
H3280       H  0.52268123  0.51684625  0.94047961     0.10950
H3281       H  0.99454409  0.47402046  0.94170064     0.10950
H3282       H  0.95962344  0.00140746  0.53313706     0.10950
C3283       C  0.95555524  0.16289431  0.00343496    -0.15180
C3284       C  0.96725995  0.13725322  0.99087352     0.06970
C3285       C  0.95065278  0.11348867  0.48460560    -0.15180
C3286       C  0.92265204  0.11494282  0.49186900    -0.15180
C3287       C  0.91069108  0.14054140  0.00408810     0.06970
C3288       C  0.92715232  0.16465984  0.00973522    -0.15180
H3289       H  0.96848423  0.18110329  0.00911386     0.10950
H3290       H  0.95965927  0.09316151  0.47611866     0.10950
H3291       H  0.91041418  0.09580198  0.48870236     0.10950
H3292       H  0.91814871  0.18462735  0.01913587     0.10950
C3293       C  0.67790692  0.15702083  0.48281022    -0.15180
C3294       C  0.66020779  0.13561484  0.49430135     0.06970
C3295       C  0.67209101  0.11099833  0.00951591    -0.15180
C3296       C  0.70085460  0.10834573  0.01448753    -0.15180
C3297       C  0.71848757  0.12974084  0.50311409     0.06970
C3298       C  0.70682614  0.15392140  0.48683818    -0.15180
H3299       H  0.66942275  0.17619173  0.47085675     0.10950
H3300       H  0.65912802  0.09354026  0.01708876     0.10950
H3301       H  0.70942649  0.08894644  0.02593441     0.10950
H3302       H  0.72011663  0.17039117  0.47722134     0.10950
C3303       C  0.61886925  0.23324331  0.54136879    -0.15180
C3304       C  0.60323618  0.22624173  0.01357977     0.06970
C3305       C  0.60666066  0.24230395  0.98505566    -0.15180
C3306       C  0.62585643  0.26435022  0.98402375    -0.15180
C3307       C  0.64145894  0.27128185  0.01168265     0.06970
C3308       C  0.63745168  0.25606762  0.54060425    -0.15180
H3309       H  0.61689271  0.22089467  0.56351240     0.10950
H3310       H  0.59532471  0.23708501  0.96310002     0.10950
H3311       H  0.62798845  0.27656391  0.96179018     0.10950
H3312       H  0.64880305  0.26172493  0.56239935     0.10950
O3313       O  0.59531254  0.67829469  0.03011466    -0.81970
O3314       O  0.50815102  0.61529686  0.47105415    -0.81990
O3315       O  0.54184287  0.66914215  0.43708224    -0.82000
O3316       O  0.52609262  0.61382987  0.06761369    -0.81940
O3317       O  0.53832361  0.62281858  0.42289780    -0.82070
O3318       O  0.54712090  0.65503756  0.05797988    -0.81990
O3319       O  0.51115954  0.64184576  0.01348246    -0.81970
O3320       O  0.57026678  0.69557767  0.48916183    -0.82010
C3321       C  0.58753901  0.69933788  0.51211669     1.07720
C3322       C  0.99706000  0.63247461  0.49080175     1.07600
C3323       C  0.53041718  0.64942327  0.42035232     1.07740
C3324       C  0.52904300  0.64049421  0.07411358     1.07620
O3325       O  0.59778611  0.63043794  0.07096440    -0.81970
O3326       O  0.58674720  0.59285780  0.45195774    -0.82050
O3327       O  0.61850863  0.66002953  0.47561792    -0.81980
O3328       O  0.52709836  0.57813043  0.00939005    -0.81960
O3329       O  0.53477725  0.56744340  0.45655809    -0.82020
O3330       O  0.61445629  0.62312980  0.00894459    -0.81980
O3331       O  0.57684210  0.59400366  0.04666929    -0.81940
O3332       O  0.59051051  0.63458742  0.42583160    -0.82010
Co3333     Co  0.58053668  0.63836670  0.03078387     1.51530
Co3334     Co  0.54848522  0.60404906  0.46554552     1.51690
Co3335     Co  0.57905727  0.66416651  0.45833892     1.51570
Co3336     Co  0.54368974  0.61813998  0.02676406     1.51470
O3337       O  0.56185782  0.63621586  0.98850277    -1.43910
C3338       C  0.59330020  0.60356548  0.06912237     1.07650
C3339       C  0.59758398  0.60816514  0.43003613     1.07740
C3340       C  0.62949663  0.63945741  0.99226503     1.07670
C3341       C  0.52462337  0.56084879  0.98416169     1.07650
O3342       O  0.78989080  0.56344775  0.04170791    -0.81970
O3343       O  0.86602578  0.62387028  0.49509160    -0.81990
O3344       O  0.83646730  0.59280374  0.45382759    -0.82000
O3345       O  0.84614640  0.63102450  0.07336306    -0.81940
O3346       O  0.85374567  0.63195492  0.43186726    -0.82070
O3347       O  0.84095755  0.59034509  0.04575255    -0.81990
O3348       O  0.86962081  0.66226190  0.02512332    -0.81970
O3349       O  0.78515770  0.57219531  0.48798664    -0.82010
C3350       C  0.78203267  0.55541720  0.01344760     1.07720
C3351       C  0.88082039  0.64205285  0.50901930     1.07600
C3352       C  0.85255461  0.60466677  0.43249331     1.07740
C3353       C  0.85384813  0.60505460  0.06696455     1.07620
O3354       O  0.79321119  0.61759853  0.07762437    -0.81970
O3355       O  0.80085603  0.65107121  0.44043782    -0.82050
O3356       O  0.76305359  0.63193926  0.48030626    -0.81980
O3357       O  0.81999163  0.69456461  0.01430669    -0.81960
O3358       O  0.84460577  0.67931151  0.47232305    -0.82020
O3359       O  0.76063028  0.61082665  0.02698197    -0.81980
O3360       O  0.79500112  0.66440439  0.06545293    -0.81940
O3361       O  0.78589434  0.60726245  0.42850798    -0.82010
Co3362     Co  0.80163905  0.60103096  0.03341025     1.51530
Co3363     Co  0.83333985  0.63769247  0.47048007     1.51690
Co3364     Co  0.79956907  0.61307364  0.47129760     1.51570
Co3365     Co  0.83119220  0.66193977  0.04298621     1.51470
O3366       O  0.81310304  0.63460563  0.01122026    -1.43910
C3367       C  0.78590706  0.64403187  0.08270931     1.07650
C3368       C  0.78726347  0.63403511  0.42150609     1.07740
C3369       C  0.74889314  0.62457702  0.00401633     1.07670
C3370       C  0.83581170  0.69981373  0.49052719     1.07650
O3371       O  0.65198069  0.81734425  0.03127375    -0.81970
O3372       O  0.73760769  0.88949655  0.46399048    -0.81990
O3373       O  0.70123418  0.83215563  0.43688753    -0.82000
O3374       O  0.71921377  0.87614241  0.06550441    -0.81940
O3375       O  0.72054265  0.87636398  0.44078185    -0.82070
O3376       O  0.70199215  0.83424080  0.05516165    -0.81990
O3377       O  0.74053488  0.88115436  0.01504283    -0.81970
O3378       O  0.67360870  0.80228988  0.48711081    -0.82010
C3379       C  0.65788765  0.79750544  0.51103829     1.07720
C3380       C  0.75241143  0.88300274  0.48861534     1.07600
C3381       C  0.71971190  0.85018333  0.42877998     1.07740
C3382       C  0.71947415  0.84915562  0.07032131     1.07620
O3383       O  0.65543914  0.86260861  0.07581377    -0.81970
O3384       O  0.67523558  0.91007226  0.43974838    -0.82050
O3385       O  0.62759750  0.84202418  0.48070920    -0.81980
O3386       O  0.71751538  0.93262948  0.03149725    -0.81960
O3387       O  0.71375785  0.93745479  0.47768143    -0.82020
O3388       O  0.63589721  0.87585016  0.01605970    -0.81980
O3389       O  0.66715567  0.90451415  0.05260069    -0.81940
O3390       O  0.65342722  0.86921461  0.43230213    -0.82010
Co3391     Co  0.66967429  0.85561917  0.03494364     1.51530
Co3392     Co  0.69847450  0.89776106  0.47781442     1.51690
Co3393     Co  0.66589838  0.83773407  0.46143619     1.51570
Co3394     Co  0.70234706  0.89320973  0.02531654     1.51470
O3395       O  0.68821704  0.85941833  0.49587620    -1.43910
C3396       C  0.65609968  0.89006105  0.07628518     1.07650
C3397       C  0.65699622  0.89536520  0.42552984     1.07740
C3398       C  0.61886327  0.86258039  0.49851218     1.07670
C3399       C  0.72155278  0.94753612  0.50543791     1.07650
O3400       O  0.94455780  0.95069704  0.01346621    -0.81970
O3401       O  0.88078430  0.86793507  0.48040122    -0.81990
O3402       O  0.91970528  0.91564922  0.44042998    -0.82000
O3403       O  0.89785473  0.87380910  0.05606882    -0.81940
O3404       O  0.90504938  0.87244751  0.43138118    -0.82070
O3405       O  0.91506529  0.91873009  0.06211012    -0.81990
O3406       O  0.88166802  0.86167895  0.03179098    -0.81970
O3407       O  0.96765488  0.93579808  0.47000686    -0.82010
C3408       C  0.96061069  0.95589712  0.48978954     1.07720
C3409       C  0.86780939  0.86711400  0.00628780     1.07600
C3410       C  0.90282838  0.89923966  0.42607547     1.07740
C3411       C  0.89773147  0.89929530  0.06970761     1.07620
O3412       O  0.96301160  0.88229122  0.06743794    -0.81970
O3413       O  0.95774330  0.84673609  0.44873764    -0.82050
O3414       O  0.98435878  0.87732641  0.48736480    -0.81980
O3415       O  0.90608856  0.81452662  0.01886950    -0.81960
O3416       O  0.90649629  0.81754225  0.46492229    -0.82020
O3417       O  0.99080236  0.91188959  0.02194975    -0.81980
O3418       O  0.94216477  0.84120884  0.05820515    -0.81940
O3419       O  0.97038407  0.88835490  0.42542686    -0.82010
Co3420     Co  0.95141919  0.91449092  0.03865341     1.51530
Co3421     Co  0.92022033  0.85720321  0.47289263     1.51690
Co3422     Co  0.95185707  0.89630694  0.46448373     1.51570
Co3423     Co  0.92095506  0.85401466  0.01915281     1.51470
O3424       O  0.93106626  0.89275529  0.00197582    -1.43910
C3425       C  0.95940441  0.85599099  0.07375547     1.07650
C3426       C  0.97186819  0.86079814  0.42695451     1.07740
C3427       C  0.00055668  0.89116053  0.00521718     1.07670
C3428       C  0.89991159  0.80388273  0.99094666     1.07650
O3429       O  0.70578119  0.61569057  0.17564037    -0.81970
O3430       O  0.70070680  0.64916532  0.30168737    -0.81990
O3431       O  0.64601157  0.66738562  0.21730719    -0.82000
O3432       O  0.75018084  0.57176563  0.25910778    -0.81940
O3433       O  0.66364868  0.67850414  0.26488984    -0.82070
O3434       O  0.74598428  0.59859266  0.21660807    -0.81990
O3435       O  0.73506039  0.61863006  0.29314821    -0.81970
O3436       O  0.70171024  0.65099877  0.20978873    -0.82010
C3437       C  0.71084451  0.64120113  0.18316909     1.07720
C3438       C  0.72483194  0.63967669  0.30841073     1.07600
C3439       C  0.64871251  0.68591091  0.24029625     1.07740
C3440       C  0.76025172  0.58972687  0.24031712     1.07620
O3441       O  0.71708714  0.54360398  0.22467981    -0.81970
O3442       O  0.64056996  0.63044624  0.28148447    -0.82050
O3443       O  0.65636285  0.61309870  0.18375120    -0.81980
O3444       O  0.68867387  0.58652417  0.31840408    -0.81960
O3445       O  0.66080039  0.62372414  0.30357015    -0.82020
O3446       O  0.67304086  0.56816931  0.18991533    -0.81980
O3447       O  0.70224354  0.54318911  0.27536790    -0.81940
O3448       O  0.63283352  0.61102895  0.23610236    -0.82010
Co3449     Co  0.70931034  0.58227197  0.20483260     1.51530
Co3450     Co  0.67903472  0.63879794  0.26219965     1.51690
Co3451     Co  0.66774534  0.63060043  0.22627369     1.51570
Co3452     Co  0.71665244  0.58175426  0.28418881     1.51470
O3453       O  0.69152441  0.59804437  0.24662592    -1.43910
C3454       C  0.71268936  0.53027799  0.25106122     1.07650
C3455       C  0.62328054  0.61823597  0.26272844     1.07740
C3456       C  0.65635339  0.58623583  0.17646357     1.07670
C3457       C  0.66807159  0.60316844  0.32333118     1.07650
O3458       O  0.91514721  0.59329070  0.19271794    -0.81970
O3459       O  0.94620169  0.58457599  0.32106957    -0.81990
O3460       O  0.97965444  0.57861089  0.22390964    -0.82000
O3461       O  0.88083197  0.64966005  0.27264861    -0.81940
O3462       O  0.94465995  0.56718225  0.25601947    -0.82070
O3463       O  0.88201449  0.61448169  0.23740839    -0.81990
O3464       O  0.90990652  0.61067779  0.30404490    -0.81970
O3465       O  0.95400322  0.60428298  0.17050790    -0.82010
C3466       C  0.93048125  0.59204051  0.16851870     1.07720
C3467       C  0.92103043  0.59292476  0.32478168     1.07600
C3468       C  0.96610638  0.55979310  0.23961508     1.07740
C3469       C  0.86895193  0.62922755  0.25801622     1.07620
O3470       O  0.89530698  0.67334837  0.21986493    -0.81970
O3471       O  0.48940177  0.59817239  0.28043266    -0.82050
O3472       O  0.96690063  0.66075360  0.19960560    -0.81980
O3473       O  0.92114363  0.66594780  0.32014539    -0.81960
O3474       O  0.95893108  0.64014718  0.30618487    -0.82020
O3475       O  0.92959893  0.65213966  0.17131001    -0.81980
O3476       O  0.92676506  0.68483221  0.25667877    -0.81940
O3477       O  0.49596055  0.63474574  0.24843837    -0.82010
Co3478     Co  0.90675083  0.63268509  0.20700020     1.51530
Co3479     Co  0.94797210  0.60406178  0.27975603     1.51690
Co3480     Co  0.97267055  0.62040106  0.21224158     1.51570
Co3481     Co  0.92260014  0.64716653  0.27866326     1.51470
O3482       O  0.93793393  0.62625487  0.23927767    -1.43910
C3483       C  0.90639048  0.69212086  0.23821486     1.07650
C3484       C  0.50548873  0.61644895  0.26856249     1.07740
C3485       C  0.95362904  0.66339333  0.17348762     1.07670
C3486       C  0.94643532  0.65802223  0.32537645     1.07650
O3487       O  0.52834623  0.88139551  0.18331606    -0.81970
O3488       O  0.56415654  0.83998424  0.31415154    -0.81990
O3489       O  0.58184994  0.81074789  0.21750762    -0.82000
O3490       O  0.99425537  0.88083746  0.25993612    -0.81940
O3491       O  0.59572676  0.81407487  0.26898978    -0.82070
O3492       O  0.99842104  0.91519309  0.22398920    -0.81990
O3493       O  0.52377200  0.84908786  0.29657985    -0.81970
O3494       O  0.52889663  0.84067971  0.21148630    -0.82010
C3495       C  0.52149429  0.85509741  0.18643404     1.07720
C3496       C  0.53855870  0.83950433  0.31908856     1.07600
C3497       C  0.59480296  0.79957527  0.24226890     1.07740
C3498       C  0.98488481  0.89499900  0.23627536     1.07620
O3499       O  0.54669514  0.94535994  0.24291048    -0.81970
O3500       O  0.61007577  0.87041209  0.27826717    -0.82050
O3501       O  0.57796751  0.86714673  0.18361244    -0.81980
O3502       O  0.55530838  0.90051180  0.32105348    -0.81960
O3503       O  0.59324880  0.87732428  0.30093387    -0.82020
O3504       O  0.57767076  0.91282262  0.19930826    -0.81980
O3505       O  0.51768605  0.93382032  0.28178421    -0.81940
O3506       O  0.60800774  0.85937284  0.22859547    -0.82010
Co3507     Co  0.53920734  0.91232824  0.21461396     1.51530
Co3508     Co  0.57412129  0.85128131  0.26838042     1.51690
Co3509     Co  0.56702718  0.85033818  0.22673670     1.51570
Co3510     Co  0.52453454  0.89092635  0.28840773     1.51470
O3511       O  0.55232037  0.88623943  0.25201630    -1.43910
C3512       C  0.52785039  0.95255868  0.26285293     1.07650
C3513       C  0.62250853  0.86779723  0.25173699     1.07740
C3514       C  0.58610937  0.89307864  0.18046038     1.07670
C3515       C  0.58165509  0.89479603  0.32161113     1.07650
O3516       O  0.83171719  0.87887972  0.19159691    -0.81970
O3517       O  0.79945611  0.88724858  0.32897714    -0.81990
O3518       O  0.80111763  0.92195454  0.24444737    -0.82000
O3519       O  0.86542655  0.87608404  0.25453147    -0.81940
O3520       O  0.76859725  0.90991430  0.27973299    -0.82070
O3521       O  0.86288254  0.84050924  0.21996136    -0.81990
O3522       O  0.83589842  0.89818523  0.30165027    -0.81970
O3523       O  0.79471182  0.90617272  0.17925650    -0.82010
C3524       C  0.81959845  0.89791455  0.17318848     1.07720
C3525       C  0.82243762  0.90059434  0.32719680     1.07600
C3526       C  0.78130178  0.92883516  0.26355695     1.07740
C3527       C  0.87564793  0.86178230  0.23151278     1.07620
O3528       O  0.81991438  0.80488365  0.24173609    -0.81970
O3529       O  0.75238935  0.85343751  0.25725049    -0.82050
O3530       O  0.78342808  0.84995627  0.19355180    -0.81980
O3531       O  0.82348388  0.84006673  0.32797070    -0.81960
O3532       O  0.78564109  0.82893760  0.30277281    -0.82020
O3533       O  0.82012823  0.82367903  0.17732835    -0.81980
O3534       O  0.85360686  0.81754597  0.27551092    -0.81940
O3535       O  0.75453536  0.89060498  0.22495066    -0.82010
Co3536     Co  0.82125626  0.84244801  0.21875905     1.51530
Co3537     Co  0.77763500  0.86888005  0.29051122     1.51690
Co3538     Co  0.79602201  0.88571728  0.22020987     1.51570
Co3539     Co  0.84325442  0.85840436  0.28834886     1.51470
O3540       O  0.80956339  0.86349849  0.25941638    -1.43910
C3541       C  0.84150880  0.79830345  0.25871018     1.07650
C3542       C  0.74034649  0.87165275  0.23889236     1.07740
C3543       C  0.79493285  0.83233098  0.17313965     1.07670
C3544       C  0.79950477  0.82846303  0.32843280     1.07650
C3545       C  0.93666507  0.90798261  0.21936781    -0.15180
C3546       C  0.95775659  0.88706278  0.22399588     0.06970
C3547       C  0.95147309  0.85759625  0.22394412    -0.15180
C3548       C  0.92418212  0.84892347  0.22068870    -0.15180
C3549       C  0.90283263  0.86985340  0.22016989     0.06970
C3550       C  0.90909687  0.89937835  0.21849661    -0.15180
H3551       H  0.94117497  0.93080239  0.22047457     0.10950
H3552       H  0.96754098  0.84135945  0.22919658     0.10950
H3553       H  0.91962474  0.82619738  0.22313960     0.10950
H3554       H  0.89269534  0.91578829  0.21993398     0.10950
C3555       C  0.66635857  0.89597654  0.25380056    -0.15180
C3556       C  0.65253738  0.87018852  0.24788299     0.06970
C3557       C  0.66732428  0.84599809  0.23586249    -0.15180
C3558       C  0.69592776  0.84699606  0.23125137    -0.15180
C3559       C  0.70996253  0.87250868  0.23759896     0.06970
C3560       C  0.69506607  0.89721247  0.24834830    -0.15180
H3561       H  0.65502224  0.91497274  0.26236892     0.10950
H3562       H  0.65675594  0.82603769  0.23081261     0.10950
H3563       H  0.70723612  0.82769437  0.22344293     0.10950
H3564       H  0.70585661  0.91691535  0.25396079     0.10950
C3565       C  0.97281154  0.51280012  0.26989060    -0.15180
C3566       C  0.97964964  0.53079204  0.24380797     0.06970
C3567       C  0.50334872  0.52348654  0.22537833    -0.15180
C3568       C  0.51996007  0.49916643  0.23297251    -0.15180
C3569       C  0.51325997  0.98112805  0.25904636     0.06970
C3570       C  0.98937617  0.98819657  0.27735350    -0.15180
H3571       H  0.95512024  0.51813811  0.28506659     0.10950
H3572       H  0.50951592  0.53700728  0.20535963     0.10950
H3573       H  0.53775578  0.49415384  0.21783241     0.10950
H3574       H  0.98322814  0.97447321  0.29718746     0.10950
C3575       C  0.89528283  0.73725031  0.27026444    -0.15180
C3576       C  0.89147570  0.72059082  0.24215968     0.06970
C3577       C  0.86986023  0.72893211  0.22046106    -0.15180
C3578       C  0.85255814  0.75319216  0.22667954    -0.15180
C3579       C  0.85635349  0.76981969  0.25479861     0.06970
C3580       C  0.87800748  0.76152797  0.27645454    -0.15180
H3581       H  0.91119605  0.73113315  0.28791965     0.10950
H3582       H  0.86605684  0.71643287  0.19875817     0.10950
H3583       H  0.83666773  0.75935711  0.20901595     0.10950
H3584       H  0.88182156  0.77406339  0.29813304     0.10950
C3585       C  0.73875751  0.98872015  0.22735538    -0.15180
C3586       C  0.72708558  0.00202428  0.25492594     0.06970
C3587       C  0.73534464  0.99212272  0.28583692    -0.15180
C3588       C  0.75509026  0.96955000  0.28895093    -0.15180
C3589       C  0.76728567  0.95707788  0.26128689     0.06970
C3590       C  0.75893582  0.96680356  0.23052429    -0.15180
H3591       H  0.73296955  0.99594645  0.20318236     0.10950
H3592       H  0.72723953  0.50235534  0.30752274     0.10950
H3593       H  0.76051077  0.96141367  0.31288433     0.10950
H3594       H  0.76697648  0.95644268  0.20886933     0.10950
C3595       C  0.61727510  0.72407828  0.21393494    -0.15180
C3596       C  0.63511953  0.71511670  0.23944155     0.06970
C3597       C  0.63989003  0.73439525  0.26513534    -0.15180
C3598       C  0.62694031  0.76171053  0.26567900    -0.15180
C3599       C  0.60886531  0.77068047  0.24049583     0.06970
C3600       C  0.60430132  0.75168815  0.21442132    -0.15180
H3601       H  0.61319781  0.70972638  0.19382174     0.10950
H3602       H  0.65359831  0.72833990  0.28513576     0.10950
H3603       H  0.63111663  0.77582971  0.28598896     0.10950
H3604       H  0.59044721  0.75801111  0.19466437     0.10950
C3605       C  0.80846892  0.58200712  0.25948717    -0.15180
C3606       C  0.78761831  0.60096435  0.24777170     0.06970
C3607       C  0.79240144  0.63073923  0.24621681    -0.15180
C3608       C  0.81872304  0.64117325  0.25380720    -0.15180
C3609       C  0.84016486  0.62173560  0.26305614     0.06970
C3610       C  0.83467192  0.59227469  0.26665844    -0.15180
H3611       H  0.80484579  0.55905495  0.26161104     0.10950
H3612       H  0.77580010  0.64577695  0.23938729     0.10950
H3613       H  0.82284392  0.66387662  0.25021168     0.10950
H3614       H  0.85130572  0.57682817  0.27250329     0.10950
C3615       C  0.57903267  0.59301731  0.25326261    -0.15180
C3616       C  0.59389840  0.61377001  0.27059660     0.06970
C3617       C  0.57949048  0.63308553  0.29117626    -0.15180
C3618       C  0.55032113  0.63316269  0.29219610    -0.15180
C3619       C  0.53559213  0.61341630  0.27332419     0.06970
C3620       C  0.55008892  0.59272122  0.25482185    -0.15180
H3621       H  0.58970655  0.57796226  0.23721885     0.10950
H3622       H  0.59059433  0.64939384  0.30453986     0.10950
H3623       H  0.53926469  0.64936213  0.30641985     0.10950
H3624       H  0.53890593  0.57751543  0.23993437     0.10950
C3625       C  0.51970188  0.85395776  0.40514139    -0.15180
C3626       C  0.99163685  0.84591488  0.40506030     0.06970
C3627       C  0.98152252  0.82960883  0.37911424    -0.15180
C3628       C  0.99833270  0.82424610  0.35205605    -0.15180
C3629       C  0.52570048  0.83447425  0.35095701     0.06970
C3630       C  0.53683476  0.84760151  0.37862945    -0.15180
H3631       H  0.52771001  0.86727000  0.42447927     0.10950
H3632       H  0.95981745  0.82374599  0.37823276     0.10950
H3633       H  0.98915616  0.81440087  0.33081319     0.10950
H3634       H  0.55768539  0.85594671  0.37825344     0.10950
C3635       C  0.50549296  0.84947117  0.09916058    -0.15180
C3636       C  0.97705812  0.84341013  0.09979062     0.06970
C3637       C  0.96570322  0.83214243  0.12828412    -0.14940
C3638       C  0.98186222  0.83089430  0.15694699    -0.15180
C3639       C  0.50890880  0.84187841  0.15728508     0.06970
C3640       C  0.52124858  0.84866629  0.12758299    -0.15180
H3641       H  0.51478615  0.85787075  0.07733743     0.10950
H3642       H  0.94383305  0.82701511  0.12918674     0.10950
H3643       H  0.97240298  0.82374182  0.17897460     0.10950
H3644       H  0.54226578  0.85669339  0.12695444     0.10950
C3645       C  0.85244316  0.90089480  0.41085047    -0.15180
C3646       C  0.87974327  0.90979757  0.40464999     0.06970
C3647       C  0.88500508  0.92339689  0.37511852    -0.15180
C3648       C  0.86431455  0.92445379  0.35081134    -0.15180
C3649       C  0.83794165  0.91213381  0.35575649     0.06970
C3650       C  0.83140920  0.90330198  0.38713734    -0.15180
H3651       H  0.84788642  0.88996612  0.43318338     0.10950
H3652       H  0.90579933  0.93039136  0.36959607     0.10950
H3653       H  0.87000244  0.93213803  0.32702142     0.10950
H3654       H  0.81093890  0.89545609  0.39234885     0.10950
C3655       C  0.84782958  0.89781885  0.08877006    -0.15180
C3656       C  0.87559902  0.90592598  0.09417134     0.06970
C3657       C  0.88249467  0.91749722  0.12458946    -0.15180
C3658       C  0.86283590  0.91825544  0.14972679    -0.15180
C3659       C  0.83570196  0.90812561  0.14492590     0.06970
C3660       C  0.82802298  0.89935064  0.11365902    -0.15180
H3661       H  0.84159385  0.88913882  0.06573603     0.10950
H3662       H  0.90362453  0.92395291  0.12966773     0.10950
H3663       H  0.86922978  0.92525051  0.17350760     0.10950
H3664       H  0.80738142  0.89126510  0.10918110     0.10950
C3665       C  0.75584590  0.81425282  0.35675180    -0.15180
C3666       C  0.78314585  0.82491908  0.35885678     0.06970
C3667       C  0.79039931  0.84008773  0.38692237    -0.15180
C3668       C  0.76990852  0.84859249  0.40942692    -0.15180
C3669       C  0.74205318  0.84007237  0.40590153     0.06970
C3670       C  0.73572339  0.82142174  0.38015590    -0.15180
H3671       H  0.74938105  0.80221028  0.33559854     0.10950
H3672       H  0.81145882  0.84734818  0.39003848     0.10950
H3673       H  0.77590079  0.86240632  0.42899634     0.10950
H3674       H  0.71469098  0.81390479  0.37690197     0.10950
C3675       C  0.73058705  0.82469043  0.12289508    -0.15180
C3676       C  0.73973076  0.83611130  0.09349273     0.06970
C3677       C  0.76842550  0.83937947  0.08873795    -0.15180
C3678       C  0.78758204  0.83303153  0.11372794    -0.15180
C3679       C  0.77812941  0.82487362  0.14438796     0.06970
C3680       C  0.74960618  0.81953304  0.14833717    -0.15180
H3681       H  0.70852123  0.82239535  0.12721282     0.10950
H3682       H  0.77583552  0.84863619  0.06645221     0.10950
H3683       H  0.80932768  0.83781787  0.11024533     0.10950
H3684       H  0.74172817  0.81388138  0.17198076     0.10950
C3685       C  0.62895835  0.90768149  0.34216118    -0.15180
C3686       C  0.60008104  0.90596123  0.34772259     0.06970
C3687       C  0.59049805  0.90875882  0.37964573    -0.15180
C3688       C  0.60960349  0.90914819  0.40560453    -0.15180
C3689       C  0.63851640  0.90763676  0.40000156     0.06970
C3690       C  0.64799142  0.90849966  0.36804612    -0.15180
H3691       H  0.63703930  0.90590760  0.31784598     0.10950
H3692       H  0.56847127  0.90756029  0.38478308     0.10950
H3693       H  0.60182666  0.90784435  0.43013038     0.10950
H3694       H  0.67009799  0.90667914  0.36308749     0.10950
C3695       C  0.65244438  0.89468610  0.13440580    -0.15180
C3696       C  0.64265594  0.90382184  0.10383641     0.06970
C3697       C  0.61527008  0.91459766  0.10035291    -0.15180
C3698       C  0.59687144  0.91273133  0.12629149    -0.15180
C3699       C  0.60599730  0.90006481  0.15549906     0.06970
C3700       C  0.63407925  0.89247288  0.16005442    -0.15180
H3701       H  0.67344315  0.88578188  0.13729086     0.10950
H3702       H  0.60736013  0.92135837  0.07688527     0.10950
H3703       H  0.57515655  0.91903022  0.12281449     0.10950
H3704       H  0.64140764  0.88307802  0.18264859     0.10950
C3705       C  0.79256746  0.85180900  0.00213478    -0.15180
C3706       C  0.78209777  0.87763353  0.48837496     0.06970
C3707       C  0.79960522  0.90077836  0.48308814    -0.15180
C3708       C  0.82760796  0.89808361  0.49165802    -0.15180
C3709       C  0.83807847  0.87220716  0.00524409     0.06970
C3710       C  0.82058397  0.84906348  0.01053222    -0.15180
H3711       H  0.77883966  0.83412867  0.00713497     0.10950
H3712       H  0.79139308  0.92117423  0.47365671     0.10950
H3713       H  0.84130483  0.91584796  0.48694654     0.10950
H3714       H  0.82875262  0.82873585  0.02018422     0.10950
C3715       C  0.57917854  0.89589196  0.01502413    -0.15180
C3716       C  0.58862261  0.87008892  0.50016700     0.06970
C3717       C  0.56878476  0.85108246  0.98783951    -0.15180
C3718       C  0.54028005  0.85767647  0.99035422    -0.15180
C3719       C  0.53081805  0.88357156  0.00498247     0.06970
C3720       C  0.55060164  0.90251779  0.01755252    -0.15180
H3721       H  0.59397271  0.91118031  0.52420593     0.10950
H3722       H  0.57531184  0.83094251  0.47646361     0.10950
H3723       H  0.52559180  0.84250150  0.98057208     0.10950
H3724       H  0.54402651  0.92272973  0.02869352     0.10950
C3725       C  0.78547227  0.64699232  0.36369326    -0.15180
C3726       C  0.77194220  0.64534188  0.39347234     0.06970
C3727       C  0.74293810  0.64928182  0.39499761    -0.15180
C3728       C  0.72726923  0.65218646  0.36644866    -0.15180
C3729       C  0.74056601  0.65020546  0.33635845     0.06970
C3730       C  0.76981767  0.64933823  0.33517938    -0.15180
H3731       H  0.80787567  0.64377956  0.36230615     0.10950
H3732       H  0.73231569  0.64779220  0.41797645     0.10950
H3733       H  0.70473398  0.65245889  0.36782546     0.10950
H3734       H  0.78039678  0.64758270  0.31218331     0.10950
C3735       C  0.73741722  0.65164080  0.10171764    -0.15180
C3736       C  0.76601228  0.65126804  0.10855015     0.06970
C3737       C  0.77519059  0.65713938  0.14020699    -0.15180
C3738       C  0.75587796  0.66014601  0.16544151    -0.15180
C3739       C  0.72732172  0.65691262  0.15930729     0.06970
C3740       C  0.71823275  0.65477647  0.12683915    -0.15180
H3741       H  0.72995893  0.64766800  0.07729775     0.10950
H3742       H  0.79728064  0.65757952  0.14572411     0.10950
H3743       H  0.76346030  0.66165677  0.19001145     0.10950
H3744       H  0.69637826  0.65162215  0.12140602     0.10950
C3745       C  0.89793405  0.58468626  0.41144546    -0.15180
C3746       C  0.86886391  0.58842314  0.40787838     0.06970
C3747       C  0.85733326  0.58695778  0.37661305    -0.15180
C3748       C  0.87454207  0.58503575  0.34944053    -0.15180
C3749       C  0.90375355  0.58415558  0.35276700     0.06970
C3750       C  0.91524440  0.58214380  0.38414511    -0.15180
H3751       H  0.90751924  0.58645154  0.43501070     0.10950
H3752       H  0.83514177  0.59070337  0.37294622     0.10950
H3753       H  0.86501958  0.58697164  0.32572485     0.10950
H3754       H  0.93764521  0.58193557  0.38760627     0.10950
C3755       C  0.90436687  0.60199123  0.08345813    -0.15180
C3756       C  0.87703676  0.59203810  0.08658055     0.06970
C3757       C  0.87095174  0.57465819  0.11328036    -0.15180
C3758       C  0.89059717  0.57060243  0.13835444    -0.15180
C3759       C  0.91676089  0.58390914  0.13726695     0.06970
C3760       C  0.92433658  0.59708914  0.10814355    -0.15180
H3761       H  0.90974939  0.61538009  0.06315628     0.10950
H3762       H  0.85008841  0.56675531  0.11638896     0.10950
H3763       H  0.88409867  0.55978716  0.16022073     0.10950
H3764       H  0.94467058  0.60624539  0.10590668     0.10950
C3765       C  0.75510939  0.51849765  0.98112648    -0.15180
C3766       C  0.76743284  0.52728967  0.01048107     0.06970
C3767       C  0.76414756  0.00969300  0.53803629    -0.15180
C3768       C  0.74889185  0.98428486  0.53643748    -0.15180
C3769       C  0.73645308  0.97551168  0.50721387     0.06970
C3770       C  0.73990200  0.49288913  0.47949252    -0.15180
H3771       H  0.75698328  0.53153499  0.95947788     0.10950
H3772       H  0.77320782  0.01565326  0.56112905     0.10950
H3773       H  0.74704908  0.97136018  0.55817790     0.10950
H3774       H  0.73082130  0.48670884  0.45648371     0.10950
C3775       C  0.86541195  0.73545541  0.46116049    -0.15180
C3776       C  0.84877231  0.72852420  0.98794074     0.06970
C3777       C  0.84873071  0.74703116  0.01492418    -0.15180
C3778       C  0.86578525  0.77102584  0.01579726    -0.15180
C3779       C  0.88295642  0.77756874  0.98947446     0.06970
C3780       C  0.88206778  0.75999372  0.46174906    -0.15180
H3781       H  0.86614016  0.72146394  0.44013467     0.10950
H3782       H  0.83651095  0.74224077  0.03612425     0.10950
H3783       H  0.86546089  0.78456453  0.03721364     0.10950
H3784       H  0.89473912  0.76479666  0.44092872     0.10950
C3785       C  0.51026090  0.67536356  0.37188436    -0.15180
C3786       C  0.50675807  0.65719184  0.39868013     0.06970
C3787       C  0.98050948  0.64545191  0.40407532    -0.15180
C3788       C  0.95845660  0.65068508  0.38237393    -0.15180
C3789       C  0.96262956  0.66648722  0.35394716     0.06970
C3790       C  0.48850538  0.67947470  0.34928908    -0.15180
H3791       H  0.53036951  0.68454566  0.36718594     0.10950
H3792       H  0.97726927  0.63109944  0.42420873     0.10950
H3793       H  0.93913247  0.63955024  0.38589182     0.10950
H3794       H  0.49261305  0.69068379  0.32682824     0.10950
C3795       C  0.96089436  0.66100236  0.11366438    -0.15180
C3796       C  0.97014474  0.67014475  0.14421243     0.06970
C3797       C  0.49864428  0.67652381  0.14809668    -0.15180
C3798       C  0.51795999  0.66899520  0.12406723    -0.15180
C3799       C  0.50900554  0.65505836  0.09593355     0.06970
C3800       C  0.98027122  0.65266656  0.09002833    -0.15180
H3801       H  0.93904422  0.65700577  0.10942773     0.10950
H3802       H  0.50650061  0.68426213  0.17111120     0.10950
H3803       H  0.53999625  0.67161783  0.12874598     0.10950
H3804       H  0.97290534  0.64263883  0.06796267     0.10950
C3805       C  0.62301432  0.59138521  0.34830783    -0.15180
C3806       C  0.65114747  0.59795263  0.35200650     0.06970
C3807       C  0.66267897  0.60036038  0.38321759    -0.15180
C3808       C  0.64538781  0.59961499  0.41031143    -0.15180
C3809       C  0.61667565  0.59579025  0.40626308     0.06970
C3810       C  0.60583149  0.59035004  0.37529182    -0.15180
H3811       H  0.61414915  0.58810447  0.32451632     0.10950
H3812       H  0.68456874  0.60482126  0.38645801     0.10950
H3813       H  0.65395641  0.60453518  0.43396033     0.10950
H3814       H  0.58360878  0.58798729  0.37168781     0.10950
C3815       C  0.59446474  0.58078230  0.12260684    -0.15180
C3816       C  0.60741601  0.58466900  0.09262493     0.06970
C3817       C  0.63638841  0.58117405  0.09041021    -0.15180
C3818       C  0.65253221  0.57738140  0.11833854    -0.15180
C3819       C  0.63975014  0.57749560  0.14868414     0.06970
C3820       C  0.61065345  0.57757591  0.15074397    -0.15180
H3821       H  0.57215528  0.58424458  0.12483466     0.10950
H3822       H  0.64673042  0.58498964  0.06779834     0.10950
H3823       H  0.67503766  0.57801148  0.11653126     0.10950
H3824       H  0.60060888  0.57822271  0.17414561     0.10950
C3825       C  0.98960304  0.52945159  0.01206647    -0.15180
C3826       C  0.50795655  0.53416612  0.98626754     0.06970
C3827       C  0.50898423  0.01389925  0.46086692    -0.15180
C3828       C  0.99258921  0.98936769  0.46141449    -0.15180
C3829       C  0.97450998  0.98427700  0.98734190     0.06970
C3830       C  0.97302644  0.50478580  0.01257910    -0.15180
H3831       H  0.98796374  0.54485700  0.03175427     0.10950
H3832       H  0.52269203  0.01685036  0.44048043     0.10950
H3833       H  0.99456291  0.97401860  0.44170439     0.10950
H3834       H  0.95960731  0.50141266  0.03313352     0.10950
C3835       C  0.95555629  0.66290070  0.50343570    -0.15180
C3836       C  0.96726125  0.63725886  0.49087649     0.06970
C3837       C  0.95064971  0.61348364  0.98460253    -0.15180
C3838       C  0.92264910  0.61493752  0.99186674    -0.15180
C3839       C  0.91069206  0.64054783  0.50408903     0.06970
C3840       C  0.92715318  0.66466663  0.50973486    -0.15180
H3841       H  0.96848514  0.68111010  0.50911330     0.10950
H3842       H  0.95965584  0.59315699  0.97611361     0.10950
H3843       H  0.91041097  0.59579708  0.98869845     0.10950
H3844       H  0.91814927  0.68463476  0.51913356     0.10950
C3845       C  0.67790360  0.65701732  0.98281183    -0.15180
C3846       C  0.66020473  0.63561029  0.99430105     0.06970
C3847       C  0.67209248  0.61100407  0.50951891    -0.15180
C3848       C  0.70085601  0.60835150  0.51449055    -0.15180
C3849       C  0.71848456  0.62973682  0.00311406     0.06970
C3850       C  0.70682287  0.65391813  0.98683980    -0.15180
H3851       H  0.66941918  0.67618891  0.97085997     0.10950
H3852       H  0.65912933  0.59354684  0.51709361     0.10950
H3853       H  0.70942779  0.58895281  0.52593882     0.10950
H3854       H  0.72011317  0.67038875  0.97722445     0.10950
C3855       C  0.61885379  0.73324504  0.04137119    -0.15180
C3856       C  0.60324727  0.72624406  0.51357920     0.06970
C3857       C  0.60667230  0.74230654  0.48505532    -0.15180
C3858       C  0.62587238  0.76434889  0.48402205    -0.15180
C3859       C  0.64147898  0.77127618  0.51167935     0.06970
C3860       C  0.63743204  0.75607319  0.04060789    -0.15180
H3861       H  0.61687723  0.72089682  0.06351508     0.10950
H3862       H  0.59533309  0.73709086  0.46310094     0.10950
H3863       H  0.62800428  0.77656338  0.46178902     0.10950
H3864       H  0.64878051  0.76173347  0.06240399     0.10950
O3865       O  0.59531701  0.67829921  0.53011542    -0.81970
O3866       O  0.50814909  0.61529059  0.97105283    -0.81990
O3867       O  0.54184047  0.66913442  0.93708108    -0.82000
O3868       O  0.52609550  0.61383599  0.56761452    -0.81940
O3869       O  0.53832193  0.62281086  0.92289678    -0.82070
O3870       O  0.54712452  0.65504337  0.55798099    -0.81990
O3871       O  0.51116172  0.64185197  0.51348383    -0.81970
O3872       O  0.57026129  0.69557068  0.98916070    -0.82010
C3873       C  0.58753243  0.69933271  0.01211611     1.07720
C3874       C  0.99705799  0.63246853  0.99080015     1.07600
C3875       C  0.53041513  0.64941541  0.92035123     1.07740
C3876       C  0.52904662  0.64050018  0.57411488     1.07620
O3877       O  0.59778939  0.63044203  0.57096433    -0.81970
O3878       O  0.58674534  0.59285070  0.95195696    -0.82050
O3879       O  0.61850567  0.66002479  0.97561843    -0.81980
O3880       O  0.52710170  0.57813609  0.50939027    -0.81960
O3881       O  0.53477476  0.56743645  0.95655833    -0.82020
O3882       O  0.61445843  0.62313455  0.50894401    -0.81980
O3883       O  0.57684413  0.59400904  0.54666853    -0.81940
O3884       O  0.59050932  0.63458087  0.92583176    -0.82010
Co3885     Co  0.58053954  0.63837206  0.53078416     1.51530
Co3886     Co  0.54848328  0.60404208  0.96554490     1.51690
Co3887     Co  0.57905440  0.66415997  0.95833847     1.51570
Co3888     Co  0.54369207  0.61814613  0.52676450     1.51470
O3889       O  0.56185989  0.63622275  0.48850344    -1.43910
C3890       C  0.59330198  0.60356989  0.56912220     1.07650
C3891       C  0.59758258  0.60815843  0.93003588     1.07740
C3892       C  0.62949913  0.63946210  0.49226480     1.07670
C3893       C  0.52462737  0.56085444  0.48416179     1.07650
O3894       O  0.78989394  0.56345284  0.54170927    -0.81970
O3895       O  0.86602395  0.62386430  0.99509195    -0.81990
O3896       O  0.83646494  0.59279931  0.95382592    -0.82000
O3897       O  0.84614851  0.63103100  0.57336260    -0.81940
O3898       O  0.85374442  0.63195087  0.93186769    -0.82070
O3899       O  0.84096005  0.59035136  0.54575245    -0.81990
O3900       O  0.86962228  0.66226829  0.52512242    -0.81970
O3901       O  0.78515435  0.57219133  0.98798545    -0.82010
C3902       C  0.78203666  0.55542132  0.51344900     1.07720
C3903       C  0.88081876  0.64204650  0.00901992     1.07600
C3904       C  0.85255247  0.60466277  0.93249205     1.07740
C3905       C  0.85385080  0.60506130  0.56696387     1.07620
O3906       O  0.79321360  0.61760435  0.57762478    -0.81970
O3907       O  0.80085506  0.65106756  0.94043862    -0.82050
O3908       O  0.76305174  0.63193573  0.98030629    -0.81980
O3909       O  0.81999331  0.69457043  0.51430529    -0.81960
O3910       O  0.84460487  0.67930680  0.97232473    -0.82020
O3911       O  0.76063250  0.61083127  0.52698264    -0.81980
O3912       O  0.79500273  0.66441024  0.56545297    -0.81940
O3913       O  0.78589211  0.60725944  0.92850757    -0.82010
Co3914     Co  0.80164132  0.60103637  0.53341076     1.51530
Co3915     Co  0.83333855  0.63768769  0.97048056     1.51690
Co3916     Co  0.79956699  0.61306948  0.97129715     1.51570
Co3917     Co  0.83119382  0.66194587  0.54298556     1.51470
O3918       O  0.81310461  0.63461106  0.51122013    -1.43910
C3919       C  0.78590894  0.64403759  0.58270955     1.07650
C3920       C  0.78726204  0.63403221  0.92150651     1.07740
C3921       C  0.74889524  0.62458114  0.50401673     1.07670
C3922       C  0.83581001  0.69980865  0.99052893     1.07650
O3923       O  0.65200312  0.81733715  0.53127188    -0.81970
O3924       O  0.73758986  0.88949744  0.96399213    -0.81990
O3925       O  0.70121105  0.83216059  0.93688771    -0.82000
O3926       O  0.71923564  0.87613622  0.56550169    -0.81940
O3927       O  0.72052389  0.87636660  0.94078366    -0.82070
O3928       O  0.70201552  0.83423399  0.55515784    -0.81990
O3929       O  0.74055360  0.88115299  0.51504106    -0.81970
O3930       O  0.67358642  0.80229644  0.98711260    -0.82010
C3931       C  0.65786582  0.79751215  0.01104059     1.07720
C3932       C  0.75239317  0.88300338  0.98861727     1.07600
C3933       C  0.71969013  0.85018672  0.92878043     1.07740
C3934       C  0.71949755  0.84914910  0.57031707     1.07620
O3935       O  0.65546193  0.86259759  0.57581359    -0.81970
O3936       O  0.67522057  0.91007701  0.93974885    -0.82050
O3937       O  0.62757594  0.84203060  0.98071121    -0.81980
O3938       O  0.71753128  0.93262591  0.53149713    -0.81960
O3939       O  0.71374292  0.93745759  0.97768158    -0.82020
O3940       O  0.63591828  0.87584203  0.51606051    -0.81980
O3941       O  0.66717443  0.90450566  0.55260399    -0.81940
O3942       O  0.65340605  0.86922254  0.93230540    -0.82010
Co3943     Co  0.66969636  0.85561178  0.53494249     1.51530
Co3944     Co  0.69845713  0.89776504  0.97781599     1.51690
Co3945     Co  0.66587643  0.83774051  0.96143796     1.51570
Co3946     Co  0.70236535  0.89320496  0.52531641     1.51470
O3947       O  0.68819658  0.85942318  0.99587795    -1.43910
C3948       C  0.65611993  0.89005000  0.57628754     1.07650
C3949       C  0.65697875  0.89537226  0.92553178     1.07740
C3950       C  0.61884191  0.86258783  0.99851255     1.07670
C3951       C  0.72153829  0.94753884  0.00543785     1.07650
O3952       O  0.94457965  0.95069000  0.51347227    -0.81970
O3953       O  0.88076687  0.86793404  0.98040091    -0.81990
O3954       O  0.91968101  0.91565322  0.94042888    -0.82000
O3955       O  0.89787349  0.87380195  0.55606969    -0.81940
O3956       O  0.90502792  0.87245004  0.93138198    -0.82070
O3957       O  0.91508658  0.91872139  0.56211466    -0.81990
O3958       O  0.88168517  0.86167542  0.53179059    -0.81970
O3959       O  0.96763248  0.93580388  0.97000136    -0.82010
C3960       C  0.96058956  0.95590319  0.98978395     1.07720
C3961       C  0.86782678  0.86711353  0.50628805     1.07600
C3962       C  0.90280389  0.89924221  0.92607690     1.07740
C3963       C  0.89775200  0.89928699  0.56971098     1.07620
O3964       O  0.96303146  0.88227991  0.56743777    -0.81970
O3965       O  0.95772605  0.84674275  0.94873243    -0.82050
O3966       O  0.98433861  0.87733454  0.98735951    -0.81980
O3967       O  0.90610275  0.81452250  0.51886741    -0.81960
O3968       O  0.90648323  0.81754409  0.96492384    -0.82020
O3969       O  0.99082360  0.91188181  0.52195353    -0.81980
O3970       O  0.94218289  0.84119941  0.55819912    -0.81940
O3971       O  0.97036115  0.88836304  0.92542148    -0.82010
Co3972     Co  0.95144013  0.91448243  0.53865697     1.51530
Co3973     Co  0.92020377  0.85720653  0.97289152     1.51690
Co3974     Co  0.95183516  0.89631289  0.96448001     1.51570
Co3975     Co  0.92097135  0.85400922  0.51915051     1.51470
O3976       O  0.93108602  0.89275026  0.50197759    -1.43910
C3977       C  0.95942328  0.85597907  0.57375105     1.07650
C3978       C  0.97184840  0.86080648  0.92694834     1.07740
C3979       C  0.00057765  0.89115254  0.50522118     1.07670
C3980       C  0.89992397  0.80388035  0.49094447     1.07650
O3981       O  0.70577984  0.61569285  0.67563985    -0.81970
O3982       O  0.70070590  0.64916387  0.80168936    -0.81990
O3983       O  0.64601212  0.66738769  0.71731021    -0.82000
O3984       O  0.75018119  0.57176690  0.75910592    -0.81940
O3985       O  0.66364770  0.67850340  0.76489449    -0.82070
O3986       O  0.74598365  0.59859478  0.71660691    -0.81990
O3987       O  0.73506023  0.61863003  0.79314834    -0.81970
O3988       O  0.70171074  0.65100017  0.70978933    -0.82010
C3989       C  0.71084421  0.64120301  0.68316901     1.07720
C3990       C  0.72483138  0.63967592  0.80841176     1.07600
C3991       C  0.64871214  0.68591149  0.74030099     1.07740
C3992       C  0.76025153  0.58972868  0.74031547     1.07620
O3993       O  0.71708747  0.54360559  0.72467721    -0.81970
O3994       O  0.64056965  0.63044483  0.78148665    -0.82050
O3995       O  0.65636183  0.61310078  0.68375235    -0.81980
O3996       O  0.68867452  0.58652216  0.81840390    -0.81960
O3997       O  0.66079995  0.62372166  0.80357150    -0.82020
O3998       O  0.67304047  0.56817127  0.68991444    -0.81980
O3999       O  0.70224451  0.54318899  0.77536556    -0.81940
O4000       O  0.63283310  0.61103089  0.73610286    -0.82010
Co4001     Co  0.70930986  0.58227391  0.70483148     1.51530
Co4002     Co  0.67903391  0.63879757  0.76220164     1.51690
Co4003     Co  0.66774555  0.63060197  0.72627471     1.51570
Co4004     Co  0.71665283  0.58175411  0.78418776     1.51470
O4005       O  0.69152413  0.59804487  0.74662572    -1.43910
C4006       C  0.71268991  0.53027874  0.75105808     1.07650
C4007       C  0.62328011  0.61823614  0.76272954     1.07740
C4008       C  0.65635225  0.58623798  0.67646420     1.07670
C4009       C  0.66807166  0.60316552  0.82333171     1.07650
O4010       O  0.91514928  0.59329691  0.69271406    -0.81970
O4011       O  0.94619863  0.58457462  0.82106579    -0.81990
O4012       O  0.97965584  0.57861642  0.72390667    -0.82000
O4013       O  0.88083153  0.64966237  0.77264635    -0.81940
O4014       O  0.94466012  0.56718505  0.75601355    -0.82070
O4015       O  0.88201470  0.61448603  0.73740361    -0.81990
O4016       O  0.90990450  0.61067818  0.80404168    -0.81970
O4017       O  0.95400613  0.60429038  0.67050649    -0.82010
C4018       C  0.93048452  0.59204731  0.66851584     1.07720
C4019       C  0.92102753  0.59292410  0.82477798     1.07600
C4020       C  0.96610698  0.55979739  0.73960906     1.07740
C4021       C  0.86895182  0.62923063  0.75801228     1.07620
O4022       O  0.89530881  0.67335330  0.71986507    -0.81970
O4023       O  0.48940072  0.59817391  0.78043188    -0.82050
O4024       O  0.96690217  0.66076006  0.69960832    -0.81980
O4025       O  0.92114116  0.66594736  0.82014600    -0.81960
O4026       O  0.95892881  0.64014655  0.80618615    -0.82020
O4027       O  0.92960201  0.65214672  0.67130998    -0.81980
O4028       O  0.92676579  0.68483472  0.75668123    -0.81940
O4029       O  0.49596047  0.63474951  0.74844101    -0.82010
Co4030     Co  0.90675257  0.63269068  0.70699805     1.51530
Co4031     Co  0.94797094  0.60406291  0.77975367     1.51690
Co4032     Co  0.97267203  0.62040691  0.71224181     1.51570
Co4033     Co  0.92259943  0.64716812  0.77866294     1.51470
O4034       O  0.93793444  0.62625857  0.73927666    -1.43910
C4035       C  0.90639172  0.69212453  0.73821719     1.07650
C4036       C  0.50548813  0.61645117  0.76856375     1.07740
C4037       C  0.95363210  0.66340018  0.67348938     1.07670
C4038       C  0.94643246  0.65802093  0.82537799     1.07650
O4039       O  0.52835219  0.88138900  0.68330819    -0.81970
O4040       O  0.56414946  0.83999171  0.81415284    -0.81990
O4041       O  0.58185249  0.81074758  0.71751257    -0.82000
O4042       O  0.99425595  0.88084063  0.75992153    -0.81940
O4043       O  0.59572453  0.81407641  0.76899623    -0.82070
O4044       O  0.99842363  0.91519374  0.72397208    -0.81990
O4045       O  0.52376804  0.84909362  0.79657146    -0.81970
O4046       O  0.52890073  0.84067760  0.71148614    -0.82010
C4047       C  0.52150098  0.85509101  0.68643014     1.07720
C4048       C  0.53855070  0.83951290  0.81908503     1.07600
C4049       C  0.59480279  0.79957568  0.74227589     1.07740
C4050       C  0.98488583  0.89500221  0.73626077     1.07620
O4051       O  0.54669510  0.94536285  0.74289294    -0.81970
O4052       O  0.61007568  0.87041370  0.77826976    -0.82050
O4053       O  0.57797366  0.86714147  0.68361091    -0.81980
O4054       O  0.55530269  0.90051885  0.82104435    -0.81960
O4055       O  0.59324550  0.87732977  0.80093273    -0.82020
O4056       O  0.57767501  0.91281965  0.69929834    -0.81980
O4057       O  0.51768594  0.93382431  0.78176774    -0.81940
O4058       O  0.60800963  0.85937317  0.72859826    -0.82010
Co4059     Co  0.53921056  0.91232654  0.71460155     1.51530
Co4060     Co  0.57412022  0.85128405  0.76838111     1.51690
Co4061     Co  0.56702999  0.85033819  0.72673674     1.51570
Co4062     Co  0.52453232  0.89093124  0.78839579     1.51470
O4063       O  0.55232192  0.88624202  0.75200944    -1.43910
C4064       C  0.52785069  0.95256197  0.76283596     1.07650
C4065       C  0.62250966  0.86779752  0.75174031     1.07740
C4066       C  0.58611608  0.89307285  0.68045540     1.07670
C4067       C  0.58164937  0.89480354  0.82160599     1.07650
O4068       O  0.83172785  0.87887535  0.69160530    -0.81970
O4069       O  0.79943508  0.88724827  0.82897465    -0.81990
O4070       O  0.80111470  0.92195144  0.74443989    -0.82000
O4071       O  0.86542499  0.87608140  0.75455253    -0.81940
O4072       O  0.76858911  0.90991150  0.77971969    -0.82070
O4073       O  0.86288685  0.84050701  0.71998102    -0.81990
O4074       O  0.83588473  0.89818386  0.80165990    -0.81970
O4075       O  0.79472315  0.90616252  0.67924800    -0.82010
C4076       C  0.81961200  0.89790582  0.67318895     1.07720
C4077       C  0.82241645  0.90059497  0.82720091     1.07600
C4078       C  0.78129681  0.92883212  0.76354670     1.07740
C4079       C  0.87564901  0.86178153  0.73153400     1.07620
O4080       O  0.81991296  0.80488231  0.74174431    -0.81970
O4081       O  0.75238819  0.85343276  0.75723398    -0.82050
O4082       O  0.78343742  0.84994767  0.69354857    -0.81980
O4083       O  0.82346433  0.84006637  0.82797805    -0.81960
O4084       O  0.78562734  0.82893605  0.80276920    -0.82020
O4085       O  0.82014317  0.82367360  0.67733595    -0.81980
O4086       O  0.85359955  0.81754371  0.77552739    -0.81940
O4087       O  0.75453653  0.89060004  0.72493519    -0.82010
Co4088     Co  0.82126099  0.84244498  0.71876578     1.51530
Co4089     Co  0.77762406  0.86887772  0.79050266     1.51690
Co4090     Co  0.79602464  0.88571171  0.72020523     1.51570
Co4091     Co  0.84324407  0.85840250  0.78836204     1.51470
O4092       O  0.80955962  0.86349696  0.75941845    -1.43910
C4093       C  0.84150484  0.79830174  0.75872231     1.07650
C4094       C  0.74034619  0.87164847  0.73887606     1.07740
C4095       C  0.79494796  0.83232311  0.67314005     1.07670
C4096       C  0.79948497  0.82846307  0.82843358     1.07650
C4097       C  0.93666130  0.90799008  0.71938131    -0.15180
C4098       C  0.95775567  0.88706940  0.72398569     0.06970
C4099       C  0.95147329  0.85760270  0.72392610    -0.15180
C4100       C  0.92418139  0.84892971  0.72068414    -0.15180
C4101       C  0.90283108  0.86985895  0.72018845     0.06970
C4102       C  0.90909322  0.89938496  0.71852532    -0.15180
H4103       H  0.94117084  0.93080965  0.72049644     0.10950
H4104       H  0.96754338  0.84136571  0.72916764     0.10950
H4105       H  0.91962609  0.82620252  0.72312790     0.10950
H4106       H  0.89269168  0.91579383  0.71997976     0.10950
C4107       C  0.66636117  0.89597565  0.75379760    -0.15180
C4108       C  0.65253878  0.87018721  0.74788616     0.06970
C4109       C  0.66732351  0.84599596  0.73586413    -0.15180
C4110       C  0.69592585  0.84699372  0.73124451    -0.15180
C4111       C  0.70996204  0.87250666  0.73758581     0.06970
C4112       C  0.69506775  0.89721107  0.74833763    -0.15180
H4113       H  0.65502642  0.91497264  0.76236652     0.10950
H4114       H  0.65675417  0.82603540  0.73081805     0.10950
H4115       H  0.70723254  0.82769139  0.72343480     0.10950
H4116       H  0.70585952  0.91691407  0.75394618     0.10950
C4117       C  0.97281449  0.51280423  0.76988209    -0.15180
C4118       C  0.97964974  0.53079598  0.74379840     0.06970
C4119       C  0.50334633  0.52349020  0.72536459    -0.15180
C4120       C  0.51995814  0.49916965  0.73295584    -0.15180
C4121       C  0.51326095  0.98113166  0.75903111     0.06970
C4122       C  0.98937965  0.98820066  0.77734235    -0.15180
H4123       H  0.95512531  0.51814260  0.78506123     0.10950
H4124       H  0.50951120  0.53701107  0.70534494     0.10950
H4125       H  0.53775174  0.49415647  0.71781265     0.10950
H4126       H  0.98323391  0.97447765  0.79717764     0.10950
C4127       C  0.89528314  0.73725161  0.77027065    -0.15180
C4128       C  0.89147626  0.72059370  0.74216460     0.06970
C4129       C  0.86986003  0.72893512  0.72046721    -0.15180
C4130       C  0.85255669  0.75319348  0.72668824    -0.15180
C4131       C  0.85635157  0.76981941  0.75480862     0.06970
C4132       C  0.87800654  0.76152783  0.77646325    -0.15180
H4133       H  0.91119706  0.73113421  0.78792491     0.10950
H4134       H  0.86605681  0.71643709  0.69876338     0.10950
H4135       H  0.83666550  0.75935839  0.70902556     0.10950
H4136       H  0.88182038  0.77406218  0.79814259     0.10950
C4137       C  0.73875486  0.98872018  0.72734926    -0.15180
C4138       C  0.72708543  0.00202461  0.75492108     0.06970
C4139       C  0.73534619  0.99212254  0.78583124    -0.15180
C4140       C  0.75509082  0.96954879  0.78894326    -0.15180
C4141       C  0.76728343  0.95707606  0.76127797     0.06970
C4142       C  0.75893210  0.96680231  0.73051616    -0.15180
H4143       H  0.73296552  0.99594700  0.70317685     0.10950
H4144       H  0.72724306  0.50235543  0.80751788     0.10950
H4145       H  0.76051249  0.96141190  0.81287610     0.10950
H4146       H  0.76697059  0.95644077  0.70886046     0.10950
C4147       C  0.61727634  0.72408008  0.71394054    -0.15180
C4148       C  0.63511865  0.71511698  0.73944830     0.06970
C4149       C  0.63988649  0.73439361  0.76514476    -0.15180
C4150       C  0.62693652  0.76170887  0.76568937    -0.15180
C4151       C  0.60886420  0.77068043  0.74050443     0.06970
C4152       C  0.60430251  0.75168972  0.71442783    -0.15180
H4153       H  0.61320100  0.70972967  0.69382543     0.10950
H4154       H  0.65359299  0.72833683  0.78514630     0.10950
H4155       H  0.63111083  0.77582686  0.78600097     0.10950
H4156       H  0.59045043  0.75801397  0.69466946     0.10950
C4157       C  0.80846948  0.58200891  0.75948304    -0.15180
C4158       C  0.78761819  0.60096625  0.74776944     0.06970
C4159       C  0.79240086  0.63074125  0.74621541    -0.15180
C4160       C  0.81872258  0.64117542  0.75380485    -0.15180
C4161       C  0.84016496  0.62173778  0.76305198     0.06970
C4162       C  0.83467263  0.59227664  0.76665332    -0.15180
H4163       H  0.80484671  0.55905662  0.76160623     0.10950
H4164       H  0.77579907  0.64577895  0.73938723     0.10950
H4165       H  0.82284301  0.66387900  0.75021015     0.10950
H4166       H  0.85130684  0.57683025  0.77249712     0.10950
C4167       C  0.57903161  0.59301909  0.75326135    -0.15180
C4168       C  0.59389788  0.61377006  0.77059736     0.06970
C4169       C  0.57949042  0.63308417  0.79117911    -0.15180
C4170       C  0.55032105  0.63316187  0.79219909    -0.15180
C4171       C  0.53559152  0.61341737  0.77332521     0.06970
C4172       C  0.55008783  0.59272350  0.75482068    -0.15180
H4173       H  0.58970512  0.57796508  0.73721607     0.10950
H4174       H  0.59059467  0.64939113  0.80454435     0.10950
H4175       H  0.53926502  0.64936038  0.80642457     0.10950
H4176       H  0.53890446  0.57751914  0.73993170     0.10950
C4177       C  0.51968361  0.85396745  0.90513724    -0.15180
C4178       C  0.99161807  0.84592587  0.90505246     0.06970
C4179       C  0.98150491  0.82962365  0.87910261    -0.15180
C4180       C  0.99831743  0.82426165  0.85204602    -0.15180
C4181       C  0.52568661  0.83448680  0.85095167     0.06970
C4182       C  0.53681868  0.84761218  0.87862659    -0.15180
H4183       H  0.52769094  0.86727718  0.92447778     0.10950
H4184       H  0.95979952  0.82376225  0.87821782     0.10950
H4185       H  0.98914227  0.81441818  0.83080130     0.10950
H4186       H  0.55767012  0.85595547  0.87825428     0.10950
C4187       C  0.50551067  0.84945379  0.59915657    -0.15180
C4188       C  0.97707546  0.84339453  0.59978465     0.06970
C4189       C  0.96571811  0.83212779  0.62827705    -0.14940
C4190       C  0.98187450  0.83088117  0.65694155    -0.15180
C4191       C  0.50892059  0.84186626  0.65728195     0.06970
C4192       C  0.52126379  0.84865054  0.62758077    -0.15180
H4193       H  0.51480560  0.85785236  0.57733395     0.10950
H4194       H  0.94384766  0.82700132  0.62917772     0.10950
H4195       H  0.97241302  0.82372997  0.67896825     0.10950
H4196       H  0.54228106  0.85667759  0.62695412     0.10950
C4197       C  0.85241847  0.90088313  0.91085244    -0.15180
C4198       C  0.87971521  0.90979838  0.90465550     0.06970
C4199       C  0.88497129  0.92341252  0.87513108    -0.15180
C4200       C  0.86428006  0.92447070  0.85082465    -0.15180
C4201       C  0.83791231  0.91213782  0.85576434     0.06970
C4202       C  0.83138336  0.90329229  0.88714115    -0.15180
H4203       H  0.84786580  0.88994361  0.93318003     0.10950
H4204       H  0.90576262  0.93041760  0.86961184     0.10950
H4205       H  0.86996456  0.93216544  0.82703788     0.10950
H4206       H  0.81091627  0.89543627  0.89234882     0.10950
C4207       C  0.84784803  0.89782271  0.58876981    -0.15180
C4208       C  0.87562062  0.90591697  0.59417623     0.06970
C4209       C  0.88251978  0.91747395  0.62460000    -0.15180
C4210       C  0.86286025  0.91823133  0.64973637    -0.15180
C4211       C  0.83572206  0.90811472  0.64492983     0.06970
C4212       C  0.82804076  0.89935348  0.61365858    -0.15180
H4213       H  0.84160990  0.88915419  0.56573107     0.10950
H4214       H  0.90365216  0.92391922  0.62968239     0.10950
H4215       H  0.86925621  0.92521557  0.67352032     0.10950
H4216       H  0.80739601  0.89127801  0.60917583     0.10950
C4217       C  0.75581519  0.81426718  0.85674034    -0.15180
C4218       C  0.78311970  0.82492084  0.85885332     0.06970
C4219       C  0.79037711  0.84007675  0.88692631    -0.15180
C4220       C  0.76988779  0.84858145  0.90943265    -0.15180
C4221       C  0.74202907  0.84007473  0.90589996     0.06970
C4222       C  0.73569348  0.82143653  0.88014513    -0.15180
H4223       H  0.74934705  0.80223422  0.83558154     0.10950
H4224       H  0.81143963  0.84732708  0.89004864     0.10950
H4225       H  0.77588409  0.86238419  0.92900976     0.10950
H4226       H  0.71465800  0.81392989  0.87688556     0.10950
C4227       C  0.73061195  0.82467151  0.62288332    -0.15180
C4228       C  0.73975541  0.83610463  0.59348690     0.06970
C4229       C  0.76844950  0.83938331  0.58873766    -0.15180
C4230       C  0.78760494  0.83303409  0.61372831    -0.15180
C4231       C  0.77815136  0.82486429  0.64438383     0.06970
C4232       C  0.74962961  0.81951304  0.64832660    -0.15180
H4233       H  0.70854650  0.82236793  0.62719669     0.10950
H4234       H  0.77585925  0.84864890  0.56645636     0.10950
H4235       H  0.80934936  0.83782872  0.61025109     0.10950
H4236       H  0.74175070  0.81385262  0.67196709     0.10950
C4237       C  0.62894937  0.90769333  0.84216101    -0.15180
C4238       C  0.60007177  0.90597113  0.84771883     0.06970
C4239       C  0.59048532  0.90876746  0.87964060    -0.15180
C4240       C  0.60958802  0.90915609  0.90560187    -0.15180
C4241       C  0.63850142  0.90764546  0.90000248     0.06970
C4242       C  0.64797977  0.90851112  0.86804853    -0.15180
H4243       H  0.63703261  0.90592056  0.81784667     0.10950
H4244       H  0.56845806  0.90756775  0.88477487     0.10950
H4245       H  0.60180881  0.90785066  0.93012655     0.10950
H4246       H  0.67008689  0.90669167  0.86309284     0.10950
C4247       C  0.65245651  0.89466219  0.63440899    -0.15180
C4248       C  0.64267460  0.90380723  0.60384027     0.06970
C4249       C  0.61529239  0.91459336  0.60035503    -0.15180
C4250       C  0.59689028  0.91272976  0.62629090    -0.15180
C4251       C  0.60600872  0.90005469  0.65549707     0.06970
C4252       C  0.63408771  0.89245080  0.66005414    -0.15180
H4253       H  0.67345233  0.88575039  0.63729543     0.10950
H4254       H  0.60738732  0.92136148  0.57688777     0.10950
H4255       H  0.57517782  0.91903778  0.62281240     0.10950
H4256       H  0.64141075  0.88304909  0.68264688     0.10950
C4257       C  0.79258551  0.85180802  0.50213148    -0.15180
C4258       C  0.78207955  0.87763401  0.98837729     0.06970
C4259       C  0.79958728  0.90077797  0.98308705    -0.15180
C4260       C  0.82759040  0.89808308  0.99165521    -0.15180
C4261       C  0.83809599  0.87220687  0.50524482     0.06970
C4262       C  0.82060170  0.84906255  0.51053024    -0.15180
H4263       H  0.77885773  0.83412737  0.50713038     0.10950
H4264       H  0.79137518  0.92117328  0.97365405     0.10950
H4265       H  0.84128746  0.91584666  0.98694094     0.10950
H4266       H  0.82877032  0.82873446  0.52018106     0.10950
C4267       C  0.57919992  0.89588320  0.51502713    -0.15180
C4268       C  0.58860134  0.87009655  0.00016662     0.06970
C4269       C  0.56880584  0.85107569  0.48783861    -0.15180
C4270       C  0.54030109  0.85766945  0.49035459    -0.15180
C4271       C  0.53083919  0.88356361  0.50498509     0.06970
C4272       C  0.55062303  0.90250897  0.51755634    -0.15180
H4273       H  0.59395124  0.91118996  0.02420109     0.10950
H4274       H  0.57529089  0.83094850  0.97646632     0.10950
H4275       H  0.52561272  0.84249502  0.48057165     0.10950
H4276       H  0.54404810  0.92272008  0.52869933     0.10950
C4277       C  0.78547124  0.64699183  0.86369452    -0.15180
C4278       C  0.77194096  0.64534003  0.89347335     0.06970
C4279       C  0.74293683  0.64927925  0.89499865    -0.15180
C4280       C  0.72726810  0.65218433  0.86644975    -0.15180
C4281       C  0.74056513  0.65020440  0.83635964     0.06970
C4282       C  0.76981677  0.64933807  0.83518062    -0.15180
H4283       H  0.80787471  0.64377966  0.86230751     0.10950
H4284       H  0.73231434  0.64778857  0.91797734     0.10950
H4285       H  0.70473285  0.65245605  0.86782641     0.10950
H4286       H  0.78039600  0.64758339  0.81218453     0.10950
C4287       C  0.73741847  0.65164358  0.60171738    -0.15180
C4288       C  0.76601346  0.65127314  0.60855018     0.06970
C4289       C  0.77519090  0.65714474  0.64020737    -0.15180
C4290       C  0.75587774  0.66014959  0.66544172    -0.15180
C4291       C  0.72732178  0.65691433  0.65930703     0.06970
C4292       C  0.71823350  0.65477754  0.62683865    -0.15180
H4293       H  0.72996072  0.64767026  0.57729738     0.10950
H4294       H  0.79728080  0.65758635  0.64572490     0.10950
H4295       H  0.76345965  0.66166079  0.69001181     0.10950
H4296       H  0.69637933  0.65162174  0.62140505     0.10950
C4297       C  0.89793053  0.58467997  0.91144161    -0.15180
C4298       C  0.86886059  0.58841996  0.90787514     0.06970
C4299       C  0.85732978  0.58695888  0.87660954    -0.15180
C4300       C  0.87453835  0.58503799  0.84943668    -0.15180
C4301       C  0.90374987  0.58415458  0.85276282     0.06970
C4302       C  0.91524062  0.58213854  0.88414077    -0.15180
H4303       H  0.90751600  0.58644177  0.93500714     0.10950
H4304       H  0.83513856  0.59070686  0.87294319     0.10950
H4305       H  0.86501581  0.58697713  0.82572131     0.10950
H4306       H  0.93764147  0.58192757  0.88760187     0.10950
C4307       C  0.90436960  0.60200169  0.58345714    -0.15180
C4308       C  0.87704052  0.59204552  0.58657860     0.06970
C4309       C  0.87095738  0.57466214  0.61327619    -0.15180
C4310       C  0.89060336  0.57060602  0.63834965    -0.15180
C4311       C  0.91676570  0.58391564  0.63726346     0.06970
C4312       C  0.92433998  0.59709894  0.60814153    -0.15180
H4313       H  0.90975068  0.61539334  0.56315714     0.10950
H4314       H  0.85009489  0.56675677  0.61638396     0.10950
H4315       H  0.88410606  0.55978822  0.66021487     0.10950
H4316       H  0.94467304  0.60625740  0.60590557     0.10950
C4317       C  0.75511689  0.51849910  0.48112767    -0.15180
C4318       C  0.76743928  0.52729231  0.51048240     0.06970
C4319       C  0.76413918  0.00969118  0.03803524    -0.15180
C4320       C  0.74888067  0.98428496  0.03643685    -0.15180
C4321       C  0.73644099  0.97551288  0.00721337     0.06970
C4322       C  0.73989172  0.49288949  0.97949173    -0.15180
H4323       H  0.75698947  0.53153689  0.45947922     0.10950
H4324       H  0.77320002  0.01565067  0.06112795     0.10950
H4325       H  0.74703652  0.97136081  0.05817747     0.10950
H4326       H  0.73081034  0.48670993  0.95648302     0.10950
C4327       C  0.86540948  0.73545200  0.96116368    -0.15180
C4328       C  0.84877597  0.72852826  0.48793885     0.06970
C4329       C  0.84873842  0.74703383  0.51492337    -0.15180
C4330       C  0.86579579  0.77102630  0.51579617    -0.15180
C4331       C  0.88296582  0.77756846  0.48947204     0.06970
C4332       C  0.88206246  0.75999240  0.96175249    -0.15180
H4333       H  0.86614073  0.72145963  0.94013872     0.10950
H4334       H  0.83651985  0.74224374  0.53612447     0.10950
H4335       H  0.86547456  0.78456382  0.53721351     0.10950
H4336       H  0.89473479  0.76479583  0.94093313     0.10950
C4337       C  0.51025640  0.67536105  0.87188823    -0.15180
C4338       C  0.50675559  0.65718392  0.89867982     0.06970
C4339       C  0.98050816  0.64544066  0.90407299    -0.15180
C4340       C  0.95845446  0.65067622  0.88237349    -0.15180
C4341       C  0.96262560  0.66648381  0.85395014     0.06970
C4342       C  0.48850020  0.67947436  0.84929432    -0.15180
H4343       H  0.53036405  0.68454607  0.86719169     0.10950
H4344       H  0.97726943  0.63108436  0.92420340     0.10950
H4345       H  0.93913123  0.63953929  0.88588941     0.10950
H4346       H  0.49260655  0.69068776  0.82683584     0.10950
C4347       C  0.96089892  0.66101177  0.61366602    -0.15180
C4348       C  0.97014953  0.67015100  0.64421522     0.06970
C4349       C  0.49864971  0.67652665  0.64810097    -0.15180
C4350       C  0.51796524  0.66899797  0.62407132    -0.15180
C4351       C  0.50901001  0.65506448  0.59593584     0.06970
C4352       C  0.98027553  0.65267596  0.59002965    -0.15180
H4353       H  0.93904843  0.65701766  0.60942832     0.10950
H4354       H  0.50650638  0.68426243  0.67111644     0.10950
H4355       H  0.54000172  0.67161797  0.62875099     0.10950
H4356       H  0.97290912  0.64265071  0.56796280     0.10950
C4357       C  0.62301431  0.59138054  0.84830743    -0.15180
C4358       C  0.65114738  0.59794818  0.85200674     0.06970
C4359       C  0.66267839  0.60035529  0.88321815    -0.15180
C4360       C  0.64538686  0.59960897  0.91031171    -0.15180
C4361       C  0.61667475  0.59578399  0.90626283     0.06970
C4362       C  0.60583112  0.59034443  0.87529114    -0.15180
H4363       H  0.61414941  0.58810052  0.82451562     0.10950
H4364       H  0.68456803  0.60481653  0.88645912     0.10950
H4365       H  0.65395510  0.60452873  0.93396089     0.10950
H4366       H  0.58360849  0.58798158  0.87168660     0.10950
C4367       C  0.59446203  0.58079341  0.62260949    -0.15180
C4368       C  0.60741402  0.58467261  0.59262675     0.06970
C4369       C  0.63638563  0.58116892  0.59041171    -0.15180
C4370       C  0.65252891  0.57737562  0.61834050    -0.15180
C4371       C  0.63974703  0.57749788  0.64868637     0.06970
C4372       C  0.61065025  0.57758642  0.65074672    -0.15180
H4373       H  0.57215334  0.58426214  0.62483724     0.10950
H4374       H  0.64672825  0.58497758  0.56779866     0.10950
H4375       H  0.67503466  0.57799901  0.61653272     0.10950
H4376       H  0.60060598  0.57823926  0.67414839     0.10950
C4377       C  0.98961296  0.52945151  0.51206852    -0.15180
C4378       C  0.50796449  0.53416908  0.48626850     0.06970
C4379       C  0.50897327  0.01389706  0.96086518    -0.15180
C4380       C  0.99257348  0.98936905  0.96141095    -0.15180
C4381       C  0.97452747  0.98427293  0.48734635     0.06970
C4382       C  0.97304103  0.50478233  0.51258281    -0.15180
H4383       H  0.98797163  0.54485711  0.53175594     0.10950
H4384       H  0.52268222  0.01684607  0.94047932     0.10950
H4385       H  0.99454505  0.97402028  0.94170028     0.10950
H4386       H  0.95962312  0.50140727  0.53313788     0.10950
C4387       C  0.95555461  0.66289427  0.00343598    -0.15180
C4388       C  0.96725926  0.63725319  0.99087443     0.06970
C4389       C  0.95065200  0.61348872  0.48460641    -0.15180
C4390       C  0.92265125  0.61494295  0.49186976    -0.15180
C4391       C  0.91069035  0.64054152  0.00408892     0.06970
C4392       C  0.92715169  0.66465988  0.00973620    -0.15180
H4393       H  0.96848365  0.68110320  0.00911495     0.10950
H4394       H  0.95965845  0.59316157  0.47611938     0.10950
H4395       H  0.91041332  0.59580217  0.48870302     0.10950
H4396       H  0.91814813  0.68462739  0.01913690     0.10950
C4397       C  0.67790614  0.65702120  0.48281088    -0.15180
C4398       C  0.66020712  0.63561496  0.49430161     0.06970
C4399       C  0.67209039  0.61099838  0.00951601    -0.15180
C4400       C  0.70085394  0.60834597  0.01448786    -0.15180
C4401       C  0.71848679  0.62974133  0.50311478     0.06970
C4402       C  0.70682533  0.65392196  0.48683905    -0.15180
H4403       H  0.66942192  0.67619216  0.47085758     0.10950
H4404       H  0.65912746  0.59354014  0.01708854     0.10950
H4405       H  0.70942590  0.58894665  0.02593459     0.10950
H4406       H  0.72011578  0.67039190  0.47722249     0.10950
C4407       C  0.61886923  0.73324316  0.54136881    -0.15180
C4408       C  0.60323614  0.72624162  0.01357981     0.06970
C4409       C  0.60666072  0.74230379  0.98505568    -0.15180
C4410       C  0.62585665  0.76434994  0.98402372    -0.15180
C4411       C  0.64145924  0.77128149  0.01168260     0.06970
C4412       C  0.63745183  0.75606733  0.54060423    -0.15180
H4413       H  0.61689259  0.72089458  0.56351244     0.10950
H4414       H  0.59532471  0.73708492  0.96310006     0.10950
H4415       H  0.62798872  0.77656361  0.96179014     0.10950
H4416       H  0.64880321  0.76172460  0.56239933     0.10950
loop_ 
_geom_bond_atom_site_label_1 
_geom_bond_atom_site_label_2 
_geom_bond_distance 
_geom_bond_site_symmetry_2 
_ccdc_geom_bond_type 
O1          Co21   1.995       .  S
O1          C561   1.270       .  A
O2          Co22   2.007       .  S
O2         C2218   1.251   1_455  A
O3          Co23   1.991       .  S
O3           C11   1.276       .  A
O4          Co24   1.904       .  S
O4           C12   1.273       .  A
O5          Co22   2.012       .  S
O5           C11   1.282       .  A
O6          Co21   2.096       .  S
O6           C12   1.299       .  A
O7          Co24   1.959       .  S
O7         C2770   1.235   1_454  A
O8          Co23   1.971       .  S
O8            C9   1.268       .  A
C9          O553   1.270       .  A
C9          C544   1.472       .  S
C10        O2210   1.251       .  A
C10        O2767   1.235       .  A
C10         C524   1.442       .  S
C11         C474   1.476       .  S
C12         C487   1.474       .  S
O13         Co21   1.878       .  S
O13          C26   1.269       .  A
O14         Co22   1.981       .  S
O14          C27   1.271       .  A
O15         Co23   2.022       .  S
O15         C580   1.274       .  A
O16         Co24   2.154       .  S
O16          C29   1.319   1_554  A
O17         Co22   1.868       .  S
O17         C581   1.282       .  A
O18         Co21   1.982       .  S
O18          C28   1.265   1_554  A
O19         Co24   2.083       .  S
O19          C26   1.297       .  A
O20         Co23   1.987       .  S
O20          C27   1.271       .  A
Co21         O25   1.958   1_554  S
Co22        O577   1.887       .  S
Co23        O577   1.992       .  S
Co24         O25   2.002   1_554  S
O25        Co574   1.887       .  S
O25        Co575   1.992       .  S
C26         C504   1.456       .  S
C27         C497   1.455       .  S
C28         O567   1.274       .  A
C28         C534   1.482       .  S
C29         O569   1.282       .  A
C29         C514   1.490       .  S
O30         Co50   1.873       .  S
O30          C38   1.280       .  A
O31         Co51   1.955       .  S
O31          C39   1.251       .  A
O32         Co52   2.115       .  S
O32          C40   1.305       .  A
O33         Co53   2.015       .  S
O33          C41   1.276       .  A
O34         Co51   1.892       .  S
O34          C40   1.265       .  A
O35         Co50   2.000       .  S
O35          C41   1.274       .  A
O36         Co53   1.993       .  S
O36         C591   1.259       .  A
O37         Co52   2.145       .  S
O37         C590   1.317       .  A
C38         O589   1.317   1_554  A
C38         C454   1.498       .  S
C39         O588   1.259       .  A
C39         C527   1.450       .  S
C40         C434   1.481       .  S
C41         C444   1.485       .  S
O42         Co50   2.019       .  S
O42          C55   1.281       .  A
O43         Co51   2.066       .  S
O43          C56   1.294       .  A
O44         Co52   1.976       .  S
O44         C609   1.248       .  A
O45         Co53   1.978       .  S
O45         C610   1.272   1_554  A
O46         Co51   2.014       .  S
O46          C58   1.275       .  A
O47         Co50   2.024       .  S
O47          C57   1.261       .  A
O48         Co53   1.977       .  S
O48          C55   1.269       .  A
O49         Co52   1.899       .  S
O49          C56   1.275       .  A
Co50         O54   1.898       .  S
Co51        O606   1.955       .  S
Co52        O606   2.035       .  S
Co53         O54   2.027       .  S
O54        Co603   1.955   1_554  S
O54        Co604   2.035   1_554  S
C55         C424   1.470       .  S
C56         C414   1.455       .  S
C57         O596   1.248   1_554  A
C57         C537   1.473       .  S
C58         O597   1.272       .  A
C58        C1016   1.485       .  S
O59         Co79   1.988       .  S
O59         C619   1.268       .  A
O60         Co80   1.996       .  S
O60          C68   1.266       .  A
O61         Co81   1.994       .  S
O61          C69   1.279       .  A
O62         Co82   1.992       .  S
O62          C70   1.263       .  A
O63         Co80   2.100       .  S
O63          C69   1.310       .  A
O64         Co79   1.995       .  S
O64          C70   1.262       .  A
O65         Co82   1.953       .  S
O65         C620   1.238   1_554  A
O66         Co81   1.976       .  S
O66          C67   1.270       .  A
C67         O611   1.268       .  A
C67         C547   1.463       .  S
C68         O617   1.238       .  A
C68         C394   1.440       .  S
C69         C357   1.500       .  S
C70         C364   1.475       .  S
O71         Co79   1.850       .  S
O71          C84   1.271       .  A
O72         Co80   1.993       .  S
O72          C85   1.263       .  A
O73         Co81   2.014       .  S
O73          C86   1.267       .  A
O74         Co82   1.996       .  S
O74         C639   1.295       .  A
O75         Co80   1.994       .  S
O75          C87   1.292       .  A
O76         Co79   2.003       .  S
O76         C638   1.259   1_554  A
O77         Co82   2.093       .  S
O77          C84   1.307       .  A
O78         Co81   1.966       .  S
O78          C85   1.257       .  A
Co79        O635   1.857   1_554  S
Co80         O83   1.998       .  S
Co81         O83   2.050       .  S
Co82        O635   2.102   1_554  S
O83        Co631   1.857       .  S
O83        Co634   2.102       .  S
C84         C384   1.451       .  S
C85         C377   1.475       .  S
C86         O628   1.259       .  A
C86         C404   1.486       .  S
C87         O626   1.295       .  A
C87         C457   1.496       .  S
O88        Co108   1.989       .  S
O88         C648   1.275   1_554  A
O89        Co109   1.972       .  S
O89         C649   1.241       .  A
O90        Co110   2.017       .  S
O90          C98   1.267       .  A
O91        Co111   2.089       .  S
O91          C99   1.306       .  A
O92        Co109   1.977       .  S
O92          C98   1.260       .  A
O93        Co108   2.008       .  S
O93          C99   1.281       .  A
O94        Co111   1.984       .  S
O94          C97   1.262       .  A
O95        Co110   2.007       .  S
O95          C96   1.278       .  A
C96         O640   1.275       .  A
C96        C1069   1.491       .  S
C97         O641   1.241   1_554  A
C97         C397   1.441       .  S
C98         C334   1.484       .  S
C99         C344   1.498       .  S
O100       Co108   1.970       .  S
O100        C113   1.260       .  A
O101       Co109   2.111       .  S
O101        C114   1.312       .  A
O102       Co110   2.000       .  S
O102        C667   1.254       .  A
O103       Co111   1.977       .  S
O103        C116   1.288   1_554  A
O104       Co109   1.991       .  S
O104        C668   1.291       .  A
O105       Co108   2.018       .  S
O105        C115   1.264       .  A
O106       Co111   1.980       .  S
O106        C113   1.258       .  A
O107       Co110   1.879       .  S
O107        C114   1.276       .  A
Co108       O112   2.069       .  S
Co109       O664   2.109       .  S
Co110       O664   1.857       .  S
Co111       O112   1.999       .  S
O112       Co661   2.109   1_554  S
O112       Co662   1.857   1_554  S
C113        C324   1.473       .  S
C114        C314   1.474       .  S
C115        O654   1.254   1_554  A
C115       C2615   1.486       .  S
C116        O656   1.291       .  A
C116        C467   1.482       .  S
O117       Co137   1.962       .  S
O117        C125   1.249       .  A
O118       Co138   1.991       .  S
O118        C126   1.257       .  A
O119       Co139   2.005       .  S
O119        C127   1.286       .  A
O120       Co140   1.966       .  S
O120        C128   1.245       .  A
O121       Co138   1.965       .  S
O121        C127   1.279       .  A
O122       Co137   1.990       .  S
O122        C128   1.252       .  A
O123       Co140   1.974       .  S
O123        C126   1.252       .  A
O124       Co139   2.026       .  S
O124        C125   1.266       .  A
C125        C427   1.471       .  S
C126        C417   1.463       .  S
C127        C284   1.485       .  S
C128        C294   1.455       .  S
O129       Co137   1.992       .  S
O129        C142   1.272       .  A
O130       Co138   2.062       .  S
O130        C143   1.273       .  A
O131       Co139   2.009       .  S
O131        C144   1.278       .  A
O132       Co140   1.965       .  S
O132        C145   1.256       .  A
O133       Co138   2.054       .  S
O133        C145   1.291       .  A
O134       Co137   1.969       .  S
O134        C144   1.267       .  A
O135       Co140   1.962       .  S
O135        C142   1.268       .  A
O136       Co139   1.970       .  S
O136        C143   1.236       .  A
Co137       O141   2.056       .  S
Co138       O141   2.067       .  S
Co139       O141   2.042       .  S
Co140       O141   2.084       .  S
C142       C1378   1.470       .  S
C143        C304   1.470       .  S
C144        C507   1.454       .  S
C145        C494   1.464       .  S
O146       Co166   1.948       .  S
O146        C154   1.246       .  A
O147       Co167   1.931       .  S
O147        C155   1.270       .  A
O148       Co168   2.010       .  S
O148        C156   1.279       .  A
O149       Co169   2.019       .  S
O149        C157   1.267       .  A
O150       Co167   1.976       .  S
O150        C156   1.276       .  A
O151       Co166   1.941       .  S
O151        C157   1.252       .  A
O152       Co169   2.092       .  S
O152        C155   1.288       .  A
O153       Co168   2.081       .  S
O153        C154   1.278       .  A
C154        C447   1.495       .  S
C155        C437   1.489       .  S
C156        C254   1.485       .  S
C157        C297   1.450       .  S
O158       Co166   2.018       .  S
O158        C171   1.275       .  A
O159      Co2375   2.000       .  S
O159        C172   1.261   1_655  A
O160       Co168   1.950       .  S
O160        C173   1.251       .  A
O161       Co169   1.920       .  S
O161        C174   1.276       .  A
O162       Co167   2.070       .  S
O162        C174   1.286       .  A
O163       Co166   2.063       .  S
O163        C173   1.280       .  A
O164       Co169   1.979       .  S
O164        C171   1.273       .  A
O165      Co2376   1.982       .  S
O165        C172   1.260   1_655  A
Co166       O170   2.011       .  S
Co167      O2367   2.000       .  S
Co167       O170   2.008       .  S
Co168      O2373   1.982       .  S
Co168       O170   2.026       .  S
Co169       O170   2.025       .  S
C171        C264   1.492       .  S
C172        C307   1.460       .  S
C173        C484   1.487       .  S
C174        C477   1.465       .  S
O175       Co195   2.003       .  S
O175        C183   1.275       .  A
O176       Co196   2.023       .  S
O176        C184   1.248       .  A
O177       Co197   1.986       .  S
O177        C185   1.292       .  A
O178      Co2406   1.928       .  S
O178        C186   1.249       .  A
O179       Co196   1.986       .  S
O179        C185   1.291       .  A
O180      Co2403   2.000       .  S
O180        C186   1.260       .  A
O181       Co198   1.965       .  S
O181        C184   1.239       .  A
O182       Co197   1.992       .  S
O182        C183   1.273       .  A
C183        C327   1.480       .  S
C184        C317   1.478       .  S
C185        C287   1.484       .  S
C186        C234   1.449       .  S
O187       Co195   1.961       .  S
O187        C200   1.266       .  A
O188       Co196   1.998       .  S
O188        C201   1.255       .  A
O189       Co197   2.020       .  S
O189        C202   1.278       .  A
O190       Co198   2.047       .  S
O190        C203   1.285       .  A
O191       Co196   2.033       .  S
O191        C203   1.295       .  A
O192       Co195   1.957       .  S
O192        C202   1.261       .  A
O193       Co198   2.020       .  S
O193        C200   1.275       .  A
O194       Co197   2.022       .  S
O194        C201   1.245       .  A
Co195      O2388   2.000   1_455  S
Co195       O199   2.043       .  S
Co196       O199   2.016       .  S
Co197       O199   2.073       .  S
Co198      O2386   1.928   1_455  S
Co198       O199   2.025       .  S
C200        C257   1.487       .  S
C201        C244   1.459       .  S
C202        C387   1.452       .  S
C203        C374   1.489       .  S
O204       Co224   2.097       .  S
O204        C212   1.287       .  A
O205       Co225   2.087       .  S
O205        C213   1.280       .  A
O206       Co226   1.971       .  S
O206        C214   1.275       .  A
O207       Co227   1.953       .  S
O207        C215   1.254       .  A
O208       Co225   1.985       .  S
O208        C214   1.271       .  A
O209       Co224   1.998       .  S
O209        C215   1.264       .  A
O210       Co227   1.945       .  S
O210        C213   1.244       .  A
O211       Co226   1.935       .  S
O211        C212   1.272       .  A
C212        C347   1.488       .  S
C213        C337   1.494       .  S
C214        C277   1.457       .  S
C215        C237   1.448       .  S
O216       Co224   1.981       .  S
O216        C229   1.276       .  A
O217       Co225   1.969       .  S
O217        C230   1.259       .  A
O218       Co226   2.086       .  S
O218        C231   1.290       .  A
O219       Co227   2.087       .  S
O219        C232   1.283       .  A
O220       Co225   1.943       .  S
O220        C232   1.245       .  A
O221       Co224   1.918       .  S
O221        C231   1.275       .  A
O222       Co227   2.014       .  S
O222        C229   1.276       .  A
O223       Co226   2.010       .  S
O223        C230   1.265       .  A
Co224       O228   2.016       .  S
Co225       O228   2.018       .  S
Co226       O228   2.010       .  S
Co227       O228   2.011       .  S
C229        C267   1.491       .  S
C230        C247   1.459       .  S
C231        C367   1.475       .  S
C232        C354   1.497       .  S
C233        C234   1.394       .  A
C233        C238   1.392       .  A
C233        H239   1.084       .  S
C234        C235   1.403       .  A
C235        C236   1.385       .  A
C235        H240   1.083       .  S
C236        C237   1.392       .  A
C236        H241   1.084       .  S
C237        C238   1.407       .  A
C238        H242   1.082       .  S
C243        C244   1.400       .  A
C243        C248   1.401       .  A
C243        H249   1.083       .  S
C244        C245   1.403       .  A
C245        C246   1.390       .  A
C245        H250   1.084       .  S
C246        C247   1.397       .  A
C246        H251   1.083       .  S
C247        C248   1.406       .  A
C248        H252   1.084       .  S
C253        C254   1.406       .  A
C253       C1362   1.404   1_545  A
C253        H259   1.083       .  S
C254       C2463   1.408       .  A
C255        C256   1.396   1_545  A
C255       C2462   1.408   1_455  A
C255        H260   1.083       .  S
C256       C1361   1.405       .  A
C256        H261   1.083       .  S
C257       C1360   1.405       .  A
C257       C2466   1.410   1_455  A
C258       C1357   1.404       .  A
C258       C2465   1.410       .  A
C258        H262   1.083       .  S
C263        C264   1.405       .  A
C263        C268   1.404       .  A
C263        H269   1.083       .  S
C264        C265   1.411       .  A
C265        C266   1.404       .  A
C265        H270   1.083       .  S
C266        C267   1.405       .  A
C266        H271   1.083       .  S
C267        C268   1.410       .  A
C268        H272   1.083       .  S
C273        C274   1.407       .  A
C273        C278   1.389       .  A
C273        H279   1.083       .  S
C274       C1246   1.470       .  S
C274        C275   1.405       .  A
C275        C276   1.397       .  A
C275       H1384   1.083       .  S
C276        C277   1.404       .  A
C276        H281   1.084       .  S
C277        C278   1.398       .  A
C278        H282   1.083       .  S
H280       C1379   1.083   1_545  S
C283        C284   1.407       .  A
C283        C288   1.407       .  A
C283        H289   1.082       .  S
C284        C285   1.406       .  A
C285        C286   1.394       .  A
C285        H290   1.083       .  S
C286        C287   1.403       .  A
C286        H291   1.083       .  S
C287        C288   1.408       .  A
C288        H292   1.083       .  S
C293        C294   1.397       .  A
C293        C298   1.385       .  A
C293        H299   1.084       .  S
C294        C295   1.403       .  A
C295        C296   1.397       .  A
C295        H300   1.080       .  S
C296        C297   1.400       .  A
C296        H301   1.084       .  S
C297        C298   1.402       .  A
C298        H302   1.083       .  S
C303        C304   1.403       .  A
C303        C308   1.392       .  A
C303        H309   1.083       .  S
C304        C305   1.406       .  A
C305        C306   1.401       .  A
C305        H310   1.083       .  S
C306        C307   1.401       .  A
C306        H311   1.083       .  S
C307        C308   1.399       .  A
C308        H312   1.083       .  S
C313        C318   1.401       .  A
C313       C2522   1.407   1_455  A
C313        H319   1.082       .  S
C314        C315   1.400       .  A
C314       C2521   1.407       .  A
C315        C316   1.401       .  A
C315        H320   1.084       .  S
C316       C2525   1.409       .  A
C316        H321   1.083       .  S
C317        C318   1.401       .  A
C317       C2524   1.409   1_455  A
C318        H322   1.082       .  S
C323        C328   1.390       .  A
C323       C2532   1.401   1_455  A
C323        H329   1.084       .  S
C324        C325   1.405       .  A
C324       C2531   1.401       .  A
C325        C326   1.409       .  A
C325        H330   1.083       .  S
C326       C2535   1.406       .  A
C326        H331   1.075       .  S
C327        C328   1.404       .  A
C327       C2534   1.406   1_455  A
C328        H332   1.084       .  S
C333        C334   1.409       .  A
C333        C338   1.402       .  A
C333        H339   1.077       .  S
C334        C335   1.398       .  A
C335        C336   1.405       .  A
C335        H340   1.083       .  S
C336        C337   1.418       .  A
C336        H341   1.083       .  S
C337        C338   1.398       .  A
C338        H342   1.079       .  S
C343        C344   1.410       .  A
C343        C348   1.406       .  A
C343        H349   1.075       .  S
C344        C345   1.405       .  A
C345        C346   1.408       .  A
C345        H350   1.083       .  S
C346        C347   1.408       .  A
C346        H351   1.078       .  S
C347        C348   1.401       .  A
C348        H352   1.082       .  S
C353        C354   1.414       .  A
C353        C358   1.405       .  A
C353        H359   1.083       .  S
C354        C355   1.400       .  A
C355        C356   1.407       .  A
C355        H360   1.080       .  S
C356        C357   1.410       .  A
C356        H361   1.072       .  S
C357        C358   1.405       .  A
C358        H362   1.083       .  S
C363        C364   1.401       .  A
C363        C368   1.401       .  A
C363        H369   1.083       .  S
C364        C365   1.405       .  A
C365        C366   1.401       .  A
C365        H370   1.081       .  S
C366        C367   1.402       .  A
C366        H371   1.083       .  S
C367        C368   1.408       .  A
C368        H372   1.083       .  S
C373        C374   1.411       .  A
C373        C378   1.400       .  A
C373        H379   1.081       .  S
C374        C375   1.403       .  A
C375        C376   1.404       .  A
C375        H380   1.083       .  S
C376        C377   1.409       .  A
C376        H381   1.083       .  S
C377        C378   1.399       .  A
C378        H382   1.084       .  S
C383        C384   1.403       .  A
C383        C388   1.388       .  A
C383        H389   1.085       .  S
C384        C385   1.400       .  A
C385        C386   1.397       .  A
C385        H390   1.080       .  S
C386        C387   1.401       .  A
C386        H391   1.084       .  S
C387        C388   1.395       .  A
C388        H392   1.080       .  S
C393        C398   1.389       .  A
C393        C946   1.402   1_554  A
C393        H399   1.084       .  S
C394        C395   1.396       .  A
C394        C945   1.402       .  A
C395        C396   1.390       .  A
C395        H400   1.084       .  S
C396        C949   1.401       .  A
C396        H401   1.084       .  S
C397        C398   1.395       .  A
C397        C948   1.401   1_554  A
C398        H402   1.084       .  S
C403        C408   1.403       .  A
C403        C956   1.408       .  A
C403        H961   1.081       .  S
C404        C955   1.408       .  A
C404        C957   1.404       .  A
C405        C406   1.399       .  A
C405        C956   1.404   1_556  A
C405        H962   1.083       .  S
C406        C407   1.408   1_556  A
C406        H411   1.083       .  S
C407       C2323   1.486       .  S
C407        C408   1.405       .  A
C408        H412   1.083       .  S
H409        C955   1.081       .  S
H410        C957   1.083       .  S
C413        C414   1.397       .  A
C413        C418   1.393       .  A
C413        H419   1.084       .  S
C414        C415   1.402       .  A
C415        C416   1.396       .  A
C415        H420   1.083       .  S
C416        C417   1.402       .  A
C416        H421   1.083       .  S
C417        C418   1.405       .  A
C418        H422   1.082       .  S
C423        C424   1.399       .  A
C423        C428   1.397       .  A
C423        H429   1.083       .  S
C424        C425   1.403       .  A
C425        C426   1.404       .  A
C425        H430   1.083       .  S
C426        C427   1.404       .  A
C426        H431   1.077       .  S
C427        C428   1.409       .  A
C428        H432   1.084       .  S
C433        C434   1.408       .  A
C433        C438   1.408       .  A
C433        H439   1.076       .  S
C434        C435   1.401       .  A
C435        C436   1.399       .  A
C435        H440   1.084       .  S
C436        C437   1.407       .  A
C436        H441   1.079       .  S
C437        C438   1.405       .  A
C438        H442   1.083       .  S
C443        C444   1.408       .  A
C443        C448   1.407       .  A
C443        H449   1.078       .  S
C444        C445   1.400       .  A
C445        C446   1.403       .  A
C445        H450   1.083       .  S
C446        C447   1.414       .  A
C446        H451   1.083       .  S
C447        C448   1.402       .  A
C448        H452   1.078       .  S
C453        C454   1.408   1_556  A
C453       C1010   1.408   1_545  A
C453        H459   1.083       .  S
C454       C2111   1.410       .  A
C455        C456   1.401       .  A
C455       C2110   1.410       .  A
C455        H460   1.082       .  S
C456        C457   1.405       .  A
C456        H461   1.083       .  S
C457       C1562   1.410       .  A
C458       C1005   1.408   1_565  A
C458       C1561   1.410       .  A
C458        H462   1.083       .  S
C463        C468   1.405       .  A
C463       C1016   1.410       .  A
C463        H469   1.083       .  S
C464        C610   1.485       .  S
C464        C465   1.404   1_556  A
C464       C1015   1.410       .  A
C465        C466   1.396       .  A
C465        H470   1.083       .  S
C466        C467   1.406   1_554  A
C466        H471   1.083       .  S
C467       C1020   1.404       .  A
C468       C1019   1.404       .  A
C468        H472   1.083       .  S
C473        C474   1.402       .  A
C473        C478   1.403   1_455  A
C473        H479   1.083       .  S
C474       C2683   1.404   1_455  A
C475        C476   1.397       .  A
C475       C2682   1.404       .  A
C475        H480   1.078       .  S
C476        C477   1.400       .  A
C476        H481   1.083       .  S
C477       C2686   1.408       .  A
C478       C2685   1.408       .  A
C478        H482   1.083       .  S
C483        C484   1.401       .  A
C483        C488   1.401       .  A
C483        H489   1.082       .  S
C484       C2693   1.415       .  A
C485        C486   1.401   1_655  A
C485       C2692   1.415       .  A
C485        H490   1.083   1_655  S
C486        C487   1.398       .  A
C486        H491   1.084       .  S
C487       C2696   1.406   1_455  A
C488       C2695   1.406       .  A
C488        H492   1.082       .  S
C493        C494   1.399       .  A
C493        C498   1.392       .  A
C493        H499   1.079       .  S
C494        C495   1.403       .  A
C495        C496   1.399       .  A
C495        H500   1.083       .  S
C496        C497   1.403       .  A
C496        H501   1.082       .  S
C497        C498   1.401       .  A
C498        H502   1.084       .  S
C503        C504   1.402       .  A
C503        C508   1.397       .  A
C503        H509   1.083       .  S
C504        C505   1.400       .  A
C505        C506   1.391       .  A
C505        H510   1.077       .  S
C506        C507   1.399       .  A
C506        H511   1.085       .  S
C507        C508   1.400       .  A
C508        H512   1.083       .  S
C513        C518   1.408       .  A
C513       C2722   1.408   1_554  A
C513        H519   1.083       .  S
C514       C2721   1.408   1_456  A
C514       C2171   1.407       .  A
C515       C2170   1.407       .  A
C515       C2724   1.397   1_455  A
C515        H520   1.083       .  S
C516       C2723   1.397       .  A
C516       C1069   1.406       .  A
C516        H521   1.083       .  S
C517        C648   1.491       .  S
C517       C1068   1.406       .  A
C517       C1622   1.410   1_556  A
C518       C1621   1.410   1_544  A
C518        H522   1.083       .  S
C523        C524   1.401       .  A
C523        C528   1.391       .  A
C523        H529   1.083       .  S
C524       C1077   1.397       .  A
C525        C526   1.380       .  A
C525       C1076   1.397       .  A
C525        H530   1.084       .  S
C526       C1079   1.399   1_556  A
C526        H531   1.082       .  S
C527        C528   1.402       .  A
C527       C1078   1.399       .  A
C528        H532   1.083       .  S
C533        C534   1.406       .  A
C533        C538   1.400       .  A
C533        H539   1.083       .  S
C534       C1087   1.405   1_556  A
C535        C536   1.396       .  A
C535       C1086   1.405       .  A
C535        H540   1.079       .  S
C536       C1089   1.401       .  A
C536        H541   1.084       .  S
C537        C538   1.405   1_554  A
C537       C1088   1.401       .  A
C538        H542   1.083       .  S
C543        C548   1.400       .  A
C543       C1096   1.407       .  A
C543        H549   1.083       .  S
C544        C545   1.404       .  A
C544       C1095   1.407       .  A
C545        C546   1.392       .  A
C545        H550   1.083       .  S
C546        C547   1.401       .  A
C546        H551   1.084       .  S
C547       C1100   1.402       .  A
C548       C1099   1.402       .  A
C548        H552   1.083       .  S
O553       Co573   1.995       .  S
O554       Co574   2.007       .  S
O554       C2770   1.251   1_455  A
O555       Co575   1.991       .  S
O555        C563   1.276       .  A
O556       Co576   1.904       .  S
O556        C564   1.273       .  A
O557       Co574   2.012       .  S
O557        C563   1.282       .  A
O558       Co573   2.096       .  S
O558        C564   1.299       .  A
O559       Co576   1.959       .  S
O559       C2218   1.235   1_455  A
O560       Co575   1.971       .  S
O560        C561   1.268   1_556  A
C561       C1096   1.472       .  S
C562       O2762   1.251       .  A
C562       O2215   1.235   1_556  A
C562       C1076   1.442       .  S
C563       C1026   1.476       .  S
C564       C1039   1.474       .  S
O565       Co573   1.878       .  S
O565        C578   1.269       .  A
O566       Co574   1.981       .  S
O566        C579   1.271       .  A
O567       Co575   2.022       .  S
O568       Co576   2.154       .  S
O568        C581   1.319       .  A
O569       Co574   1.868       .  S
O570       Co573   1.982       .  S
O570        C580   1.265       .  A
O571       Co576   2.083       .  S
O571        C578   1.297       .  A
O572       Co575   1.987       .  S
O572        C579   1.271       .  A
Co573       O577   1.958       .  S
Co576       O577   2.002       .  S
C578       C1056   1.456       .  S
C579       C1049   1.455       .  S
C580       C1086   1.482       .  S
C581       C1066   1.490       .  S
O582       Co602   1.873       .  S
O582        C590   1.280       .  A
O583       Co603   1.955       .  S
O583        C591   1.251   1_556  A
O584       Co604   2.115       .  S
O584        C592   1.305       .  A
O585       Co605   2.015       .  S
O585        C593   1.276       .  A
O586       Co603   1.892       .  S
O586        C592   1.265       .  A
O587       Co602   2.000       .  S
O587        C593   1.274       .  A
O588       Co605   1.993       .  S
O589       Co604   2.145       .  S
C590       C1006   1.498       .  S
C591       C1079   1.450       .  S
C592        C986   1.481       .  S
C593        C996   1.485       .  S
O594       Co602   2.019       .  S
O594        C607   1.281       .  A
O595       Co603   2.066       .  S
O595        C608   1.294       .  A
O596       Co604   1.976       .  S
O597       Co605   1.978       .  S
O598       Co603   2.014       .  S
O598        C610   1.275       .  A
O599       Co602   2.024       .  S
O599        C609   1.261       .  A
O600       Co605   1.977       .  S
O600        C607   1.269       .  A
O601       Co604   1.899       .  S
O601        C608   1.275       .  A
Co602       O606   1.898       .  S
Co605       O606   2.027       .  S
C607        C976   1.470       .  S
C608        C966   1.455       .  S
C609       C1089   1.473       .  S
O611       Co631   1.988       .  S
O612       Co632   1.996       .  S
O612        C620   1.266       .  A
O613       Co633   1.994       .  S
O613        C621   1.279       .  A
O614       Co634   1.992       .  S
O614        C622   1.263       .  A
O615       Co632   2.100       .  S
O615        C621   1.310       .  A
O616       Co631   1.995       .  S
O616        C622   1.262       .  A
O617       Co634   1.953       .  S
O618       Co633   1.976       .  S
O618        C619   1.270   1_556  A
C619       C1099   1.463       .  S
C620        C946   1.440       .  S
C621        C909   1.500       .  S
C622        C916   1.475       .  S
O623       Co631   1.850       .  S
O623        C636   1.271       .  A
O624       Co632   1.993       .  S
O624        C637   1.263       .  A
O625       Co633   2.014       .  S
O625        C638   1.267       .  A
O626       Co634   1.996       .  S
O627       Co632   1.994       .  S
O627        C639   1.292   1_556  A
O628       Co631   2.003       .  S
O629       Co634   2.093       .  S
O629        C636   1.307       .  A
O630       Co633   1.966       .  S
O630        C637   1.257       .  A
Co632       O635   1.998       .  S
Co633       O635   2.050       .  S
C636        C936   1.451       .  S
C637        C929   1.475       .  S
C638        C956   1.486   1_556  S
C639       C1009   1.496       .  S
O640       Co660   1.989       .  S
O641       Co661   1.972       .  S
O642       Co662   2.017       .  S
O642        C650   1.267       .  A
O643       Co663   2.089       .  S
O643        C651   1.306       .  A
O644       Co661   1.977       .  S
O644        C650   1.260       .  A
O645       Co660   2.008       .  S
O645        C651   1.281       .  A
O646       Co663   1.984       .  S
O646        C649   1.262       .  A
O647       Co662   2.007       .  S
O647        C648   1.278       .  A
C649        C949   1.441       .  S
C650        C886   1.484       .  S
C651        C896   1.498       .  S
O652       Co660   1.970       .  S
O652        C665   1.260       .  A
O653       Co661   2.111       .  S
O653        C666   1.312       .  A
O654       Co662   2.000       .  S
O655       Co663   1.977       .  S
O655        C668   1.288       .  A
O656       Co661   1.991       .  S
O657       Co660   2.018       .  S
O657        C667   1.264       .  A
O658       Co663   1.980       .  S
O658        C665   1.258       .  A
O659       Co662   1.879       .  S
O659        C666   1.276       .  A
Co660       O664   2.069       .  S
Co663       O664   1.999       .  S
C665        C876   1.473       .  S
C666        C866   1.474       .  S
C667       C3167   1.486       .  S
C668       C1019   1.482       .  S
O669       Co689   1.962       .  S
O669        C677   1.249       .  A
O670       Co690   1.991       .  S
O670        C678   1.257       .  A
O671       Co691   2.005       .  S
O671        C679   1.286       .  A
O672       Co692   1.966       .  S
O672        C680   1.245       .  A
O673       Co690   1.965       .  S
O673        C679   1.279       .  A
O674       Co689   1.990       .  S
O674        C680   1.252       .  A
O675       Co692   1.974       .  S
O675        C678   1.252       .  A
O676       Co691   2.027       .  S
O676        C677   1.266       .  A
C677        C979   1.471       .  S
C678        C969   1.463       .  S
C679        C836   1.485       .  S
C680        C846   1.455       .  S
O681       Co689   1.992       .  S
O681        C694   1.272       .  A
O682       Co690   2.062       .  S
O682        C695   1.273       .  A
O683       Co691   2.009       .  S
O683        C696   1.278       .  A
O684       Co692   1.965       .  S
O684        C697   1.256       .  A
O685       Co690   2.054       .  S
O685        C697   1.291       .  A
O686       Co689   1.969       .  S
O686        C696   1.267       .  A
O687       Co692   1.962       .  S
O687        C694   1.268       .  A
O688       Co691   1.970       .  S
O688        C695   1.236       .  A
Co689       O693   2.056       .  S
Co690       O693   2.067       .  S
Co691       O693   2.042       .  S
Co692       O693   2.084       .  S
C694       C1930   1.470       .  S
C695        C856   1.470       .  S
C696       C1059   1.454       .  S
C697       C1046   1.464       .  S
O698       Co718   1.948       .  S
O698        C706   1.246       .  A
O699       Co719   1.931       .  S
O699        C707   1.270       .  A
O700       Co720   2.010       .  S
O700        C708   1.279       .  A
O701       Co721   2.019       .  S
O701        C709   1.267       .  A
O702       Co719   1.976       .  S
O702        C708   1.276       .  A
O703       Co718   1.941       .  S
O703        C709   1.252       .  A
O704       Co721   2.092       .  S
O704        C707   1.288       .  A
O705       Co720   2.081       .  S
O705        C706   1.278       .  A
C706        C999   1.495       .  S
C707        C989   1.489       .  S
C708        C806   1.485       .  S
C709        C849   1.450       .  S
O710       Co718   2.018       .  S
O710        C723   1.275       .  A
O711      Co2927   2.000       .  S
O711        C724   1.261   1_655  A
O712       Co720   1.950       .  S
O712        C725   1.251       .  A
O713       Co721   1.920       .  S
O713        C726   1.276       .  A
O714       Co719   2.070       .  S
O714        C726   1.286       .  A
O715       Co718   2.063       .  S
O715        C725   1.280       .  A
O716       Co721   1.979       .  S
O716        C723   1.273       .  A
O717      Co2928   1.982       .  S
O717        C724   1.260   1_655  A
Co718       O722   2.011       .  S
Co719      O2919   2.000       .  S
Co719       O722   2.008       .  S
Co720      O2925   1.982       .  S
Co720       O722   2.026       .  S
Co721       O722   2.025       .  S
C723        C816   1.492       .  S
C724        C859   1.460       .  S
C725       C1036   1.487       .  S
C726       C1029   1.465       .  S
O727       Co747   2.003       .  S
O727        C735   1.275       .  A
O728       Co748   2.023       .  S
O728        C736   1.248       .  A
O729       Co749   1.986       .  S
O729        C737   1.292       .  A
O730      Co2958   1.928       .  S
O730        C738   1.249       .  A
O731       Co748   1.986       .  S
O731        C737   1.291       .  A
O732      Co2955   2.000       .  S
O732        C738   1.260       .  A
O733       Co750   1.965       .  S
O733        C736   1.239       .  A
O734       Co749   1.992       .  S
O734        C735   1.273       .  A
C735        C879   1.480       .  S
C736        C869   1.478       .  S
C737        C839   1.484       .  S
C738        C786   1.449       .  S
O739       Co747   1.961       .  S
O739        C752   1.266       .  A
O740       Co748   1.998       .  S
O740        C753   1.255       .  A
O741       Co749   2.020       .  S
O741        C754   1.278       .  A
O742       Co750   2.047       .  S
O742        C755   1.285       .  A
O743       Co748   2.033       .  S
O743        C755   1.295       .  A
O744       Co747   1.957       .  S
O744        C754   1.261       .  A
O745       Co750   2.020       .  S
O745        C752   1.275       .  A
O746       Co749   2.022       .  S
O746        C753   1.245       .  A
Co747      O2940   2.000   1_455  S
Co747       O751   2.043       .  S
Co748       O751   2.016       .  S
Co749       O751   2.073       .  S
Co750      O2938   1.928   1_455  S
Co750       O751   2.025       .  S
C752        C809   1.487       .  S
C753        C796   1.459       .  S
C754        C939   1.452       .  S
C755        C926   1.489       .  S
O756       Co776   2.097       .  S
O756        C764   1.287       .  A
O757       Co777   2.087       .  S
O757        C765   1.280       .  A
O758       Co778   1.971       .  S
O758        C766   1.275       .  A
O759       Co779   1.953       .  S
O759        C767   1.254       .  A
O760       Co777   1.985       .  S
O760        C766   1.271       .  A
O761       Co776   1.998       .  S
O761        C767   1.264       .  A
O762       Co779   1.945       .  S
O762        C765   1.244       .  A
O763       Co778   1.935       .  S
O763        C764   1.272       .  A
C764        C899   1.488       .  S
C765        C889   1.494       .  S
C766        C829   1.457       .  S
C767        C789   1.448       .  S
O768       Co776   1.981       .  S
O768        C781   1.276       .  A
O769       Co777   1.969       .  S
O769        C782   1.259       .  A
O770       Co778   2.086       .  S
O770        C783   1.290       .  A
O771       Co779   2.087       .  S
O771        C784   1.283       .  A
O772       Co777   1.943       .  S
O772        C784   1.245       .  A
O773       Co776   1.918       .  S
O773        C783   1.275       .  A
O774       Co779   2.014       .  S
O774        C781   1.276       .  A
O775       Co778   2.010       .  S
O775        C782   1.265       .  A
Co776       O780   2.016       .  S
Co777       O780   2.017       .  S
Co778       O780   2.010       .  S
Co779       O780   2.011       .  S
C781        C819   1.491       .  S
C782        C799   1.459       .  S
C783        C919   1.475       .  S
C784        C906   1.497       .  S
C785        C786   1.394       .  A
C785        C790   1.392       .  A
C785        H791   1.084       .  S
C786        C787   1.403       .  A
C787        C788   1.385       .  A
C787        H792   1.083       .  S
C788        C789   1.392       .  A
C788        H793   1.084       .  S
C789        C790   1.407       .  A
C790        H794   1.082       .  S
C795        C796   1.400       .  A
C795        C800   1.401       .  A
C795        H801   1.083       .  S
C796        C797   1.403       .  A
C797        C798   1.390       .  A
C797        H802   1.084       .  S
C798        C799   1.397       .  A
C798        H803   1.083       .  S
C799        C800   1.406       .  A
C800        H804   1.084       .  S
C805        C806   1.406       .  A
C805       C1914   1.404   1_545  A
C805        H811   1.083       .  S
C806       C3015   1.408       .  A
C807       C3014   1.408   1_455  A
C807        C808   1.396   1_545  A
C807        H812   1.083       .  S
C808       C1913   1.405       .  A
C808        H813   1.083       .  S
C809       C1912   1.405       .  A
C809       C3018   1.410   1_455  A
C810       C1909   1.404       .  A
C810       C3017   1.410       .  A
C810        H814   1.083       .  S
C815        C816   1.405       .  A
C815        C820   1.404       .  A
C815        H821   1.083       .  S
C816        C817   1.411       .  A
C817        C818   1.404       .  A
C817        H822   1.083       .  S
C818        C819   1.405       .  A
C818        H823   1.083       .  S
C819        C820   1.410       .  A
C820        H824   1.083       .  S
C825        C826   1.407       .  A
C825        C830   1.389       .  A
C825        H831   1.083       .  S
C826       C1798   1.470       .  S
C826        C827   1.405       .  A
C827        C828   1.397       .  A
C827       H1936   1.083       .  S
C828        C829   1.404       .  A
C828        H833   1.084       .  S
C829        C830   1.398       .  A
C830        H834   1.083       .  S
H832       C1931   1.083   1_545  S
C835        C836   1.407       .  A
C835        C840   1.407       .  A
C835        H841   1.082       .  S
C836        C837   1.406       .  A
C837        C838   1.394       .  A
C837        H842   1.083       .  S
C838        C839   1.403       .  A
C838        H843   1.083       .  S
C839        C840   1.408       .  A
C840        H844   1.083       .  S
C845        C846   1.397       .  A
C845        C850   1.385       .  A
C845        H851   1.084       .  S
C846        C847   1.403       .  A
C847        C848   1.397       .  A
C847        H852   1.080       .  S
C848        C849   1.400       .  A
C848        H853   1.084       .  S
C849        C850   1.402       .  A
C850        H854   1.083       .  S
C855        C856   1.403       .  A
C855        C860   1.392       .  A
C855        H861   1.083       .  S
C856        C857   1.406       .  A
C857        C858   1.401       .  A
C857        H862   1.083       .  S
C858        C859   1.401       .  A
C858        H863   1.083       .  S
C859        C860   1.400       .  A
C860        H864   1.083       .  S
C865       C3074   1.407   1_455  A
C865        C870   1.401       .  A
C865        H871   1.082       .  S
C866       C3073   1.407       .  A
C866        C867   1.400       .  A
C867        C868   1.401       .  A
C867        H872   1.084       .  S
C868       C3077   1.409       .  A
C868        H873   1.083       .  S
C869       C3076   1.409   1_455  A
C869        C870   1.401       .  A
C870        H874   1.082       .  S
C875       C3084   1.401   1_455  A
C875        C880   1.390       .  A
C875        H881   1.084       .  S
C876       C3083   1.401       .  A
C876        C877   1.405       .  A
C877        C878   1.409       .  A
C877        H882   1.083       .  S
C878       C3087   1.406       .  A
C878        H883   1.075       .  S
C879       C3086   1.406   1_455  A
C879        C880   1.404       .  A
C880        H884   1.084       .  S
C885        C886   1.409       .  A
C885        C890   1.402       .  A
C885        H891   1.077       .  S
C886        C887   1.398       .  A
C887        C888   1.405       .  A
C887        H892   1.083       .  S
C888        C889   1.418       .  A
C888        H893   1.083       .  S
C889        C890   1.398       .  A
C890        H894   1.079       .  S
C895        C896   1.410       .  A
C895        C900   1.406       .  A
C895        H901   1.075       .  S
C896        C897   1.404       .  A
C897        C898   1.408       .  A
C897        H902   1.083       .  S
C898        C899   1.408       .  A
C898        H903   1.078       .  S
C899        C900   1.401       .  A
C900        H904   1.082       .  S
C905        C906   1.414       .  A
C905        C910   1.405       .  A
C905        H911   1.083       .  S
C906        C907   1.400       .  A
C907        C908   1.407       .  A
C907        H912   1.080       .  S
C908        C909   1.410       .  A
C908        H913   1.072       .  S
C909        C910   1.405       .  A
C910        H914   1.083       .  S
C915        C916   1.401       .  A
C915        C920   1.401       .  A
C915        H921   1.083       .  S
C916        C917   1.405       .  A
C917        C918   1.401       .  A
C917        H922   1.081       .  S
C918        C919   1.402       .  A
C918        H923   1.083       .  S
C919        C920   1.408       .  A
C920        H924   1.083       .  S
C925        C926   1.411       .  A
C925        C930   1.400       .  A
C925        H931   1.081       .  S
C926        C927   1.403       .  A
C927        C928   1.404       .  A
C927        H932   1.083       .  S
C928        C929   1.409       .  A
C928        H933   1.083       .  S
C929        C930   1.399       .  A
C930        H934   1.084       .  S
C935        C936   1.403       .  A
C935        C940   1.388       .  A
C935        H941   1.085       .  S
C936        C937   1.400       .  A
C937        C938   1.397       .  A
C937        H942   1.080       .  S
C938        C939   1.401       .  A
C938        H943   1.084       .  S
C939        C940   1.395       .  A
C940        H944   1.080       .  S
C945        C950   1.389       .  A
C945        H951   1.084       .  S
C946        C947   1.396       .  A
C947        C948   1.390       .  A
C947        H952   1.084       .  S
C948        H953   1.084       .  S
C949        C950   1.395       .  A
C950        H954   1.084       .  S
C955        C960   1.403       .  A
C957        C958   1.399       .  A
C958        C959   1.408       .  A
C958        H963   1.083       .  S
C959       C2875   1.486       .  S
C959        C960   1.405       .  A
C960        H964   1.083       .  S
C965        C966   1.397       .  A
C965        C970   1.393       .  A
C965        H971   1.084       .  S
C966        C967   1.402       .  A
C967        C968   1.396       .  A
C967        H972   1.083       .  S
C968        C969   1.402       .  A
C968        H973   1.083       .  S
C969        C970   1.405       .  A
C970        H974   1.082       .  S
C975        C976   1.399       .  A
C975        C980   1.397       .  A
C975        H981   1.083       .  S
C976        C977   1.403       .  A
C977        C978   1.404       .  A
C977        H982   1.083       .  S
C978        C979   1.404       .  A
C978        H983   1.077       .  S
C979        C980   1.409       .  A
C980        H984   1.084       .  S
C985        C986   1.408       .  A
C985        C990   1.408       .  A
C985        H991   1.076       .  S
C986        C987   1.401       .  A
C987        C988   1.399       .  A
C987        H992   1.084       .  S
C988        C989   1.407       .  A
C988        H993   1.079       .  S
C989        C990   1.405       .  A
C990        H994   1.083       .  S
C995        C996   1.408       .  A
C995       C1000   1.407       .  A
C995       H1001   1.078       .  S
C996        C997   1.400       .  A
C997        C998   1.403       .  A
C997       H1002   1.083       .  S
C998        C999   1.414       .  A
C998       H1003   1.083       .  S
C999       C1000   1.402       .  A
C1000      H1004   1.078       .  S
C1005      C1006   1.408       .  A
C1005      H1011   1.083       .  S
C1006      C1559   1.410       .  A
C1007      C1558   1.410       .  A
C1007      C1008   1.401       .  A
C1007      H1012   1.082       .  S
C1008      C1009   1.405       .  A
C1008      H1013   1.083       .  S
C1009      C2114   1.410   1_554  A
C1010      C2113   1.410   1_556  A
C1010      H1014   1.083       .  S
C1015      C1020   1.405       .  A
C1015      H1021   1.083       .  S
C1016      C1017   1.404       .  A
C1017      C1018   1.396       .  A
C1017      H1022   1.083       .  S
C1018      C1019   1.406       .  A
C1018      H1023   1.083       .  S
C1020      H1024   1.083       .  S
C1025      C1026   1.402       .  A
C1025      C1030   1.403   1_455  A
C1025      H1031   1.083       .  S
C1026      C3235   1.404   1_455  A
C1027      C3234   1.404       .  A
C1027      C1028   1.397       .  A
C1027      H1032   1.078       .  S
C1028      C1029   1.400       .  A
C1028      H1033   1.083       .  S
C1029      C3238   1.408       .  A
C1030      C3237   1.408       .  A
C1030      H1034   1.083       .  S
C1035      C1036   1.401       .  A
C1035      C1040   1.401       .  A
C1035      H1041   1.082       .  S
C1036      C3245   1.415       .  A
C1037      C3244   1.415       .  A
C1037      C1038   1.401   1_655  A
C1037      H1042   1.083   1_655  S
C1038      C1039   1.398       .  A
C1038      H1043   1.084       .  S
C1039      C3248   1.406   1_455  A
C1040      C3247   1.406       .  A
C1040      H1044   1.082       .  S
C1045      C1046   1.399       .  A
C1045      C1050   1.392       .  A
C1045      H1051   1.079       .  S
C1046      C1047   1.403       .  A
C1047      C1048   1.399       .  A
C1047      H1052   1.083       .  S
C1048      C1049   1.403       .  A
C1048      H1053   1.082       .  S
C1049      C1050   1.401       .  A
C1050      H1054   1.084       .  S
C1055      C1056   1.402       .  A
C1055      C1060   1.397       .  A
C1055      H1061   1.083       .  S
C1056      C1057   1.400       .  A
C1057      C1058   1.391       .  A
C1057      H1062   1.077       .  S
C1058      C1059   1.399       .  A
C1058      H1063   1.085       .  S
C1059      C1060   1.400       .  A
C1060      H1064   1.083       .  S
C1065      C3274   1.408       .  A
C1065      C1070   1.408       .  A
C1065      H1071   1.083       .  S
C1066      C3273   1.408   1_455  A
C1066      C1619   1.407       .  A
C1067      C1618   1.407       .  A
C1067      C3276   1.397   1_455  A
C1067      H1072   1.083       .  S
C1068      C3275   1.397       .  A
C1068      H1073   1.083       .  S
C1069      C2174   1.410       .  A
C1070      C2173   1.410   1_545  A
C1070      H1074   1.083       .  S
C1075      C1076   1.401   1_554  A
C1075      C1080   1.391       .  A
C1075      H1081   1.083       .  S
C1077      C1078   1.380       .  A
C1077      H1082   1.084       .  S
C1078      H1083   1.082       .  S
C1079      C1080   1.402       .  A
C1080      H1084   1.083       .  S
C1085      C1086   1.406       .  A
C1085      C1090   1.400       .  A
C1085      H1091   1.083       .  S
C1087      C1088   1.396       .  A
C1087      H1092   1.079       .  S
C1088      H1093   1.084       .  S
C1089      C1090   1.405       .  A
C1090      H1094   1.083       .  S
C1095      C1100   1.400       .  A
C1095      H1101   1.083       .  S
C1096      C1097   1.404   1_554  A
C1097      C1098   1.392       .  A
C1097      H1102   1.083       .  S
C1098      C1099   1.401   1_556  A
C1098      H1103   1.084       .  S
C1100      H1104   1.083       .  S
O1105     Co1125   1.995       .  S
O1105      C1665   1.270       .  A
O1106     Co1126   2.007       .  S
O1106      C3322   1.251   1_455  A
O1107     Co1127   1.991       .  S
O1107      C1115   1.276       .  A
O1108     Co1128   1.904       .  S
O1108      C1116   1.273       .  A
O1109     Co1126   2.012       .  S
O1109      C1115   1.282       .  A
O1110     Co1125   2.096       .  S
O1110      C1116   1.299       .  A
O1111     Co1128   1.959       .  S
O1111      C3874   1.235   1_454  A
O1112     Co1127   1.971       .  S
O1112      C1113   1.268       .  A
C1113      O1657   1.270       .  A
C1113      C1648   1.472       .  S
C1114      O3314   1.251       .  A
C1114      O3871   1.235       .  A
C1114      C1628   1.442       .  S
C1115      C1578   1.476       .  S
C1116      C1591   1.474       .  S
O1117     Co1125   1.878       .  S
O1117      C1130   1.269       .  A
O1118     Co1126   1.981       .  S
O1118      C1131   1.271       .  A
O1119     Co1127   2.022       .  S
O1119      C1684   1.274       .  A
O1120     Co1128   2.154       .  S
O1120      C1133   1.319   1_554  A
O1121     Co1126   1.868       .  S
O1121      C1685   1.282       .  A
O1122     Co1125   1.982       .  S
O1122      C1132   1.265   1_554  A
O1123     Co1128   2.083       .  S
O1123      C1130   1.297       .  A
O1124     Co1127   1.987       .  S
O1124      C1131   1.271       .  A
Co1125     O1129   1.958   1_554  S
Co1126     O1681   1.887       .  S
Co1127     O1681   1.992       .  S
Co1128     O1129   2.002   1_554  S
O1129     Co1678   1.887       .  S
O1129     Co1679   1.992       .  S
C1130      C1608   1.456       .  S
C1131      C1601   1.455       .  S
C1132      O1671   1.274       .  A
C1132      C1638   1.482       .  S
C1133      O1673   1.282       .  A
C1133      C1618   1.490       .  S
O1134     Co1154   1.873       .  S
O1134      C1142   1.280       .  A
O1135     Co1155   1.955       .  S
O1135      C1143   1.251       .  A
O1136     Co1156   2.115       .  S
O1136      C1144   1.305       .  A
O1137     Co1157   2.015       .  S
O1137      C1145   1.276       .  A
O1138     Co1155   1.892       .  S
O1138      C1144   1.265       .  A
O1139     Co1154   2.000       .  S
O1139      C1145   1.274       .  A
O1140     Co1157   1.993       .  S
O1140      C1695   1.259       .  A
O1141     Co1156   2.145       .  S
O1141      C1694   1.317       .  A
C1142      O1693   1.317   1_554  A
C1142      C1558   1.498       .  S
C1143      O1692   1.259       .  A
C1143      C1631   1.450       .  S
C1144      C1538   1.481       .  S
C1145      C1548   1.485       .  S
O1146     Co1154   2.019       .  S
O1146      C1159   1.281       .  A
O1147     Co1155   2.066       .  S
O1147      C1160   1.294       .  A
O1148     Co1156   1.976       .  S
O1148      C1713   1.248       .  A
O1149     Co1157   1.978       .  S
O1149      C1714   1.272   1_554  A
O1150     Co1155   2.014       .  S
O1150      C1162   1.275       .  A
O1151     Co1154   2.024       .  S
O1151      C1161   1.261       .  A
O1152     Co1157   1.977       .  S
O1152      C1159   1.269       .  A
O1153     Co1156   1.899       .  S
O1153      C1160   1.275       .  A
Co1154     O1158   1.898       .  S
Co1155     O1710   1.955       .  S
Co1156     O1710   2.035       .  S
Co1157     O1158   2.027       .  S
O1158     Co1707   1.955   1_554  S
O1158     Co1708   2.035   1_554  S
C1159      C1528   1.470       .  S
C1160      C1518   1.455       .  S
C1161      O1700   1.248   1_554  A
C1161      C1641   1.473       .  S
C1162      O1701   1.272       .  A
C1162      C2120   1.485       .  S
O1163     Co1183   1.988       .  S
O1163      C1723   1.268       .  A
O1164     Co1184   1.996       .  S
O1164      C1172   1.266       .  A
O1165     Co1185   1.994       .  S
O1165      C1173   1.279       .  A
O1166     Co1186   1.992       .  S
O1166      C1174   1.263       .  A
O1167     Co1184   2.100       .  S
O1167      C1173   1.310       .  A
O1168     Co1183   1.995       .  S
O1168      C1174   1.262       .  A
O1169     Co1186   1.953       .  S
O1169      C1724   1.238   1_554  A
O1170     Co1185   1.976       .  S
O1170      C1171   1.270       .  A
C1171      O1715   1.268       .  A
C1171      C1651   1.463       .  S
C1172      O1721   1.238       .  A
C1172      C1498   1.440       .  S
C1173      C1461   1.500       .  S
C1174      C1468   1.475       .  S
O1175     Co1183   1.850       .  S
O1175      C1188   1.271       .  A
O1176     Co1184   1.993       .  S
O1176      C1189   1.263       .  A
O1177     Co1185   2.014       .  S
O1177      C1190   1.267       .  A
O1178     Co1186   1.996       .  S
O1178      C1743   1.295       .  A
O1179     Co1184   1.994       .  S
O1179      C1191   1.292       .  A
O1180     Co1183   2.003       .  S
O1180      C1742   1.259   1_554  A
O1181     Co1186   2.093       .  S
O1181      C1188   1.307       .  A
O1182     Co1185   1.966       .  S
O1182      C1189   1.257       .  A
Co1183     O1739   1.857   1_554  S
Co1184     O1187   1.998       .  S
Co1185     O1187   2.050       .  S
Co1186     O1739   2.102   1_554  S
O1187     Co1735   1.857       .  S
O1187     Co1738   2.102       .  S
C1188      C1488   1.451       .  S
C1189      C1481   1.475       .  S
C1190      O1732   1.259       .  A
C1190      C1508   1.486       .  S
C1191      O1730   1.295       .  A
C1191      C1561   1.496       .  S
O1192     Co1212   1.989       .  S
O1192      C1752   1.275   1_554  A
O1193     Co1213   1.972       .  S
O1193      C1753   1.241       .  A
O1194     Co1214   2.017       .  S
O1194      C1202   1.267       .  A
O1195     Co1215   2.089       .  S
O1195      C1203   1.306       .  A
O1196     Co1213   1.977       .  S
O1196      C1202   1.260       .  A
O1197     Co1212   2.008       .  S
O1197      C1203   1.281       .  A
O1198     Co1215   1.984       .  S
O1198      C1201   1.262       .  A
O1199     Co1214   2.007       .  S
O1199      C1200   1.278       .  A
C1200      O1744   1.275       .  A
C1200      C2173   1.491       .  S
C1201      O1745   1.241   1_554  A
C1201      C1501   1.441       .  S
C1202      C1438   1.484       .  S
C1203      C1448   1.498       .  S
O1204     Co1212   1.970       .  S
O1204      C1217   1.260       .  A
O1205     Co1213   2.111       .  S
O1205      C1218   1.312       .  A
O1206     Co1214   2.000       .  S
O1206      C1771   1.254       .  A
O1207     Co1215   1.977       .  S
O1207      C1220   1.288   1_554  A
O1208     Co1213   1.991       .  S
O1208      C1772   1.291       .  A
O1209     Co1212   2.018       .  S
O1209      C1219   1.264       .  A
O1210     Co1215   1.980       .  S
O1210      C1217   1.258       .  A
O1211     Co1214   1.879       .  S
O1211      C1218   1.276       .  A
Co1212     O1216   2.069       .  S
Co1213     O1768   2.109       .  S
Co1214     O1768   1.857       .  S
Co1215     O1216   1.999       .  S
O1216     Co1765   2.109   1_554  S
O1216     Co1766   1.857   1_554  S
C1217      C1428   1.473       .  S
C1218      C1418   1.474       .  S
C1219      O1758   1.254   1_554  A
C1219      C3719   1.486       .  S
C1220      O1760   1.291       .  A
C1220      C1571   1.482       .  S
O1221     Co1241   1.962       .  S
O1221      C1229   1.249       .  A
O1222     Co1242   1.991       .  S
O1222      C1230   1.257       .  A
O1223     Co1243   2.005       .  S
O1223      C1231   1.286       .  A
O1224     Co1244   1.966       .  S
O1224      C1232   1.245       .  A
O1225     Co1242   1.965       .  S
O1225      C1231   1.279       .  A
O1226     Co1241   1.990       .  S
O1226      C1232   1.252       .  A
O1227     Co1244   1.974       .  S
O1227      C1230   1.252       .  A
O1228     Co1243   2.026       .  S
O1228      C1229   1.266       .  A
C1229      C1531   1.471       .  S
C1230      C1521   1.463       .  S
C1231      C1388   1.485       .  S
C1232      C1398   1.455       .  S
O1233     Co1241   1.992       .  S
O1233      C1246   1.272       .  A
O1234     Co1242   2.062       .  S
O1234      C1247   1.273       .  A
O1235     Co1243   2.009       .  S
O1235      C1248   1.278       .  A
O1236     Co1244   1.965       .  S
O1236      C1249   1.256       .  A
O1237     Co1242   2.054       .  S
O1237      C1249   1.291       .  A
O1238     Co1241   1.969       .  S
O1238      C1248   1.267       .  A
O1239     Co1244   1.962       .  S
O1239      C1246   1.268       .  A
O1240     Co1243   1.970       .  S
O1240      C1247   1.236       .  A
Co1241     O1245   2.056       .  S
Co1242     O1245   2.067       .  S
Co1243     O1245   2.042       .  S
Co1244     O1245   2.084       .  S
C1247      C1408   1.470       .  S
C1248      C1611   1.454       .  S
C1249      C1598   1.464       .  S
O1250     Co1270   1.948       .  S
O1250      C1258   1.246       .  A
O1251     Co1271   1.931       .  S
O1251      C1259   1.270       .  A
O1252     Co1272   2.010       .  S
O1252      C1260   1.279       .  A
O1253     Co1273   2.019       .  S
O1253      C1261   1.267       .  A
O1254     Co1271   1.976       .  S
O1254      C1260   1.276       .  A
O1255     Co1270   1.941       .  S
O1255      C1261   1.252       .  A
O1256     Co1273   2.092       .  S
O1256      C1259   1.288       .  A
O1257     Co1272   2.081       .  S
O1257      C1258   1.278       .  A
C1258      C1551   1.495       .  S
C1259      C1541   1.489       .  S
C1260      C1358   1.485       .  S
C1261      C1401   1.450       .  S
O1262     Co1270   2.018       .  S
O1262      C1275   1.275       .  A
O1263     Co3479   2.000       .  S
O1263      C1276   1.261   1_655  A
O1264     Co1272   1.950       .  S
O1264      C1277   1.251       .  A
O1265     Co1273   1.920       .  S
O1265      C1278   1.276       .  A
O1266     Co1271   2.070       .  S
O1266      C1278   1.286       .  A
O1267     Co1270   2.063       .  S
O1267      C1277   1.280       .  A
O1268     Co1273   1.979       .  S
O1268      C1275   1.273       .  A
O1269     Co3480   1.982       .  S
O1269      C1276   1.260   1_655  A
Co1270     O1274   2.011       .  S
Co1271     O3471   2.000       .  S
Co1271     O1274   2.008       .  S
Co1272     O3477   1.982       .  S
Co1272     O1274   2.026       .  S
Co1273     O1274   2.025       .  S
C1275      C1368   1.492       .  S
C1276      C1411   1.460       .  S
C1277      C1588   1.487       .  S
C1278      C1581   1.465       .  S
O1279     Co1299   2.003       .  S
O1279      C1287   1.275       .  A
O1280     Co1300   2.023       .  S
O1280      C1288   1.248       .  A
O1281     Co1301   1.986       .  S
O1281      C1289   1.292       .  A
O1282     Co3510   1.928       .  S
O1282      C1290   1.249       .  A
O1283     Co1300   1.986       .  S
O1283      C1289   1.291       .  A
O1284     Co3507   2.000       .  S
O1284      C1290   1.260       .  A
O1285     Co1302   1.965       .  S
O1285      C1288   1.239       .  A
O1286     Co1301   1.992       .  S
O1286      C1287   1.273       .  A
C1287      C1431   1.480       .  S
C1288      C1421   1.478       .  S
C1289      C1391   1.484       .  S
C1290      C1338   1.449       .  S
O1291     Co1299   1.961       .  S
O1291      C1304   1.266       .  A
O1292     Co1300   1.998       .  S
O1292      C1305   1.255       .  A
O1293     Co1301   2.020       .  S
O1293      C1306   1.278       .  A
O1294     Co1302   2.047       .  S
O1294      C1307   1.285       .  A
O1295     Co1300   2.033       .  S
O1295      C1307   1.295       .  A
O1296     Co1299   1.957       .  S
O1296      C1306   1.261       .  A
O1297     Co1302   2.020       .  S
O1297      C1304   1.275       .  A
O1298     Co1301   2.022       .  S
O1298      C1305   1.245       .  A
Co1299     O3492   2.000   1_455  S
Co1299     O1303   2.043       .  S
Co1300     O1303   2.016       .  S
Co1301     O1303   2.073       .  S
Co1302     O3490   1.928   1_455  S
Co1302     O1303   2.025       .  S
C1304      C1361   1.487       .  S
C1305      C1348   1.459       .  S
C1306      C1491   1.452       .  S
C1307      C1478   1.489       .  S
O1308     Co1328   2.097       .  S
O1308      C1316   1.287       .  A
O1309     Co1329   2.087       .  S
O1309      C1317   1.280       .  A
O1310     Co1330   1.971       .  S
O1310      C1318   1.275       .  A
O1311     Co1331   1.953       .  S
O1311      C1319   1.254       .  A
O1312     Co1329   1.985       .  S
O1312      C1318   1.271       .  A
O1313     Co1328   1.998       .  S
O1313      C1319   1.264       .  A
O1314     Co1331   1.945       .  S
O1314      C1317   1.244       .  A
O1315     Co1330   1.935       .  S
O1315      C1316   1.272       .  A
C1316      C1451   1.488       .  S
C1317      C1441   1.494       .  S
C1318      C1381   1.457       .  S
C1319      C1341   1.448       .  S
O1320     Co1328   1.981       .  S
O1320      C1333   1.276       .  A
O1321     Co1329   1.969       .  S
O1321      C1334   1.259       .  A
O1322     Co1330   2.086       .  S
O1322      C1335   1.290       .  A
O1323     Co1331   2.087       .  S
O1323      C1336   1.283       .  A
O1324     Co1329   1.943       .  S
O1324      C1336   1.245       .  A
O1325     Co1328   1.918       .  S
O1325      C1335   1.275       .  A
O1326     Co1331   2.014       .  S
O1326      C1333   1.276       .  A
O1327     Co1330   2.010       .  S
O1327      C1334   1.265       .  A
Co1328     O1332   2.016       .  S
Co1329     O1332   2.018       .  S
Co1330     O1332   2.010       .  S
Co1331     O1332   2.011       .  S
C1333      C1371   1.491       .  S
C1334      C1351   1.459       .  S
C1335      C1471   1.475       .  S
C1336      C1458   1.497       .  S
C1337      C1338   1.394       .  A
C1337      C1342   1.392       .  A
C1337      H1343   1.084       .  S
C1338      C1339   1.403       .  A
C1339      C1340   1.385       .  A
C1339      H1344   1.083       .  S
C1340      C1341   1.392       .  A
C1340      H1345   1.084       .  S
C1341      C1342   1.407       .  A
C1342      H1346   1.082       .  S
C1347      C1348   1.400       .  A
C1347      C1352   1.401       .  A
C1347      H1353   1.083       .  S
C1348      C1349   1.403       .  A
C1349      C1350   1.390       .  A
C1349      H1354   1.084       .  S
C1350      C1351   1.397       .  A
C1350      H1355   1.083       .  S
C1351      C1352   1.406       .  A
C1352      H1356   1.084       .  S
C1357      C1358   1.406       .  A
C1357      H1363   1.083       .  S
C1358      C3567   1.408       .  A
C1359      C3566   1.408   1_455  A
C1359      C1360   1.396       .  A
C1359      H1364   1.083       .  S
C1360      H1365   1.083       .  S
C1361      C3570   1.410   1_455  A
C1362      C3569   1.410       .  A
C1362      H1366   1.083       .  S
C1367      C1368   1.405       .  A
C1367      C1372   1.404       .  A
C1367      H1373   1.083       .  S
C1368      C1369   1.411       .  A
C1369      C1370   1.404       .  A
C1369      H1374   1.083       .  S
C1370      C1371   1.405       .  A
C1370      H1375   1.083       .  S
C1371      C1372   1.410       .  A
C1372      H1376   1.083       .  S
C1377      C1378   1.407   1_565  A
C1377      C1382   1.389       .  A
C1377      H1383   1.083       .  S
C1378      C1379   1.405   1_545  A
C1379      C1380   1.397       .  A
C1380      C1381   1.404       .  A
C1380      H1385   1.084       .  S
C1381      C1382   1.398       .  A
C1382      H1386   1.083       .  S
C1387      C1388   1.407       .  A
C1387      C1392   1.407       .  A
C1387      H1393   1.082       .  S
C1388      C1389   1.406       .  A
C1389      C1390   1.394       .  A
C1389      H1394   1.083       .  S
C1390      C1391   1.403       .  A
C1390      H1395   1.083       .  S
C1391      C1392   1.408       .  A
C1392      H1396   1.083       .  S
C1397      C1398   1.397       .  A
C1397      C1402   1.385       .  A
C1397      H1403   1.084       .  S
C1398      C1399   1.403       .  A
C1399      C1400   1.397       .  A
C1399      H1404   1.080       .  S
C1400      C1401   1.400       .  A
C1400      H1405   1.084       .  S
C1401      C1402   1.402       .  A
C1402      H1406   1.083       .  S
C1407      C1408   1.403       .  A
C1407      C1412   1.392       .  A
C1407      H1413   1.083       .  S
C1408      C1409   1.406       .  A
C1409      C1410   1.401       .  A
C1409      H1414   1.083       .  S
C1410      C1411   1.401       .  A
C1410      H1415   1.083       .  S
C1411      C1412   1.400       .  A
C1412      H1416   1.083       .  S
C1417      C3626   1.407   1_455  A
C1417      C1422   1.401       .  A
C1417      H1423   1.082       .  S
C1418      C3625   1.407       .  A
C1418      C1419   1.400       .  A
C1419      C1420   1.401       .  A
C1419      H1424   1.084       .  S
C1420      C3629   1.409       .  A
C1420      H1425   1.083       .  S
C1421      C3628   1.409   1_455  A
C1421      C1422   1.401       .  A
C1422      H1426   1.082       .  S
C1427      C3636   1.401   1_455  A
C1427      C1432   1.390       .  A
C1427      H1433   1.084       .  S
C1428      C3635   1.401       .  A
C1428      C1429   1.405       .  A
C1429      C1430   1.409       .  A
C1429      H1434   1.083       .  S
C1430      C3639   1.406       .  A
C1430      H1435   1.075       .  S
C1431      C3638   1.406   1_455  A
C1431      C1432   1.404       .  A
C1432      H1436   1.084       .  S
C1437      C1438   1.409       .  A
C1437      C1442   1.402       .  A
C1437      H1443   1.077       .  S
C1438      C1439   1.398       .  A
C1439      C1440   1.405       .  A
C1439      H1444   1.083       .  S
C1440      C1441   1.418       .  A
C1440      H1445   1.083       .  S
C1441      C1442   1.398       .  A
C1442      H1446   1.079       .  S
C1447      C1448   1.410       .  A
C1447      C1452   1.406       .  A
C1447      H1453   1.075       .  S
C1448      C1449   1.405       .  A
C1449      C1450   1.408       .  A
C1449      H1454   1.083       .  S
C1450      C1451   1.408       .  A
C1450      H1455   1.078       .  S
C1451      C1452   1.401       .  A
C1452      H1456   1.082       .  S
C1457      C1458   1.414       .  A
C1457      C1462   1.405       .  A
C1457      H1463   1.083       .  S
C1458      C1459   1.400       .  A
C1459      C1460   1.407       .  A
C1459      H1464   1.080       .  S
C1460      C1461   1.410       .  A
C1460      H1465   1.072       .  S
C1461      C1462   1.405       .  A
C1462      H1466   1.083       .  S
C1467      C1468   1.401       .  A
C1467      C1472   1.401       .  A
C1467      H1473   1.083       .  S
C1468      C1469   1.405       .  A
C1469      C1470   1.401       .  A
C1469      H1474   1.081       .  S
C1470      C1471   1.402       .  A
C1470      H1475   1.083       .  S
C1471      C1472   1.408       .  A
C1472      H1476   1.083       .  S
C1477      C1478   1.411       .  A
C1477      C1482   1.400       .  A
C1477      H1483   1.081       .  S
C1478      C1479   1.403       .  A
C1479      C1480   1.404       .  A
C1479      H1484   1.083       .  S
C1480      C1481   1.409       .  A
C1480      H1485   1.083       .  S
C1481      C1482   1.399       .  A
C1482      H1486   1.084       .  S
C1487      C1488   1.403       .  A
C1487      C1492   1.388       .  A
C1487      H1493   1.085       .  S
C1488      C1489   1.400       .  A
C1489      C1490   1.397       .  A
C1489      H1494   1.080       .  S
C1490      C1491   1.401       .  A
C1490      H1495   1.084       .  S
C1491      C1492   1.395       .  A
C1492      H1496   1.080       .  S
C1497      C2050   1.402   1_554  A
C1497      C1502   1.389       .  A
C1497      H1503   1.084       .  S
C1498      C2049   1.402       .  A
C1498      C1499   1.396       .  A
C1499      C1500   1.390       .  A
C1499      H1504   1.084       .  S
C1500      C2053   1.401       .  A
C1500      H1505   1.084       .  S
C1501      C2052   1.401   1_554  A
C1501      C1502   1.395       .  A
C1502      H1506   1.084       .  S
C1507      C2060   1.408       .  A
C1507      C1512   1.403       .  A
C1507      H2065   1.081       .  S
C1508      C2059   1.408       .  A
C1508      C2061   1.404       .  A
C1509      C2060   1.404   1_556  A
C1509      C1510   1.399       .  A
C1509      H2066   1.083       .  S
C1510      C1511   1.408   1_556  A
C1510      H1515   1.083       .  S
C1511      C3427   1.486       .  S
C1511      C1512   1.405       .  A
C1512      H1516   1.083       .  S
H1513      C2059   1.081       .  S
H1514      C2061   1.083       .  S
C1517      C1518   1.397       .  A
C1517      C1522   1.393       .  A
C1517      H1523   1.084       .  S
C1518      C1519   1.402       .  A
C1519      C1520   1.396       .  A
C1519      H1524   1.083       .  S
C1520      C1521   1.402       .  A
C1520      H1525   1.083       .  S
C1521      C1522   1.405       .  A
C1522      H1526   1.082       .  S
C1527      C1528   1.399       .  A
C1527      C1532   1.397       .  A
C1527      H1533   1.083       .  S
C1528      C1529   1.403       .  A
C1529      C1530   1.404       .  A
C1529      H1534   1.083       .  S
C1530      C1531   1.404       .  A
C1530      H1535   1.077       .  S
C1531      C1532   1.409       .  A
C1532      H1536   1.084       .  S
C1537      C1538   1.408       .  A
C1537      C1542   1.408       .  A
C1537      H1543   1.076       .  S
C1538      C1539   1.401       .  A
C1539      C1540   1.399       .  A
C1539      H1544   1.084       .  S
C1540      C1541   1.407       .  A
C1540      H1545   1.079       .  S
C1541      C1542   1.405       .  A
C1542      H1546   1.083       .  S
C1547      C1548   1.408       .  A
C1547      C1552   1.407       .  A
C1547      H1553   1.078       .  S
C1548      C1549   1.400       .  A
C1549      C1550   1.403       .  A
C1549      H1554   1.083       .  S
C1550      C1551   1.414       .  A
C1550      H1555   1.083       .  S
C1551      C1552   1.402       .  A
C1552      H1556   1.078       .  S
C1557      C1558   1.408   1_556  A
C1557      C2114   1.408       .  A
C1557      H1563   1.083       .  S
C1559      C1560   1.401   1_545  A
C1559      H1564   1.082       .  S
C1560      C1561   1.405       .  A
C1560      H1565   1.083       .  S
C1562      C2109   1.408       .  A
C1562      H1566   1.083       .  S
C1567      C2120   1.410       .  A
C1567      C1572   1.405       .  A
C1567      H1573   1.083       .  S
C1568      C1714   1.485       .  S
C1568      C2119   1.410       .  A
C1568      C1569   1.404   1_556  A
C1569      C1570   1.396       .  A
C1569      H1574   1.083       .  S
C1570      C1571   1.406   1_554  A
C1570      H1575   1.083       .  S
C1571      C2124   1.404       .  A
C1572      C2123   1.404       .  A
C1572      H1576   1.083       .  S
C1577      C1578   1.402       .  A
C1577      C1582   1.403   1_455  A
C1577      H1583   1.083       .  S
C1578      C3787   1.404   1_455  A
C1579      C3786   1.404       .  A
C1579      C1580   1.397       .  A
C1579      H1584   1.078       .  S
C1580      C1581   1.400       .  A
C1580      H1585   1.083       .  S
C1581      C3790   1.408       .  A
C1582      C3789   1.408       .  A
C1582      H1586   1.083       .  S
C1587      C1588   1.401       .  A
C1587      C1592   1.401       .  A
C1587      H1593   1.082       .  S
C1588      C3797   1.415       .  A
C1589      C3796   1.415       .  A
C1589      C1590   1.401   1_655  A
C1589      H1594   1.083   1_655  S
C1590      C1591   1.398       .  A
C1590      H1595   1.084       .  S
C1591      C3800   1.406   1_455  A
C1592      C3799   1.406       .  A
C1592      H1596   1.082       .  S
C1597      C1598   1.399       .  A
C1597      C1602   1.392       .  A
C1597      H1603   1.079       .  S
C1598      C1599   1.403       .  A
C1599      C1600   1.399       .  A
C1599      H1604   1.083       .  S
C1600      C1601   1.403       .  A
C1600      H1605   1.082       .  S
C1601      C1602   1.401       .  A
C1602      H1606   1.084       .  S
C1607      C1608   1.402       .  A
C1607      C1612   1.397       .  A
C1607      H1613   1.083       .  S
C1608      C1609   1.400       .  A
C1609      C1610   1.391       .  A
C1609      H1614   1.077       .  S
C1610      C1611   1.399       .  A
C1610      H1615   1.085       .  S
C1611      C1612   1.400       .  A
C1612      H1616   1.083       .  S
C1617      C3826   1.408   1_554  A
C1617      C1622   1.408       .  A
C1617      H1623   1.083       .  S
C1618      C3825   1.408   1_456  A
C1619      C3828   1.397   1_445  A
C1619      H1624   1.083       .  S
C1620      C3827   1.397   1_565  A
C1620      C2173   1.406       .  A
C1620      H1625   1.083       .  S
C1621      C1752   1.491       .  S
C1621      C2172   1.406       .  A
C1622      H1626   1.083       .  S
C1627      C1628   1.401       .  A
C1627      C1632   1.391       .  A
C1627      H1633   1.083       .  S
C1628      C2181   1.397       .  A
C1629      C2180   1.397       .  A
C1629      C1630   1.380       .  A
C1629      H1634   1.084       .  S
C1630      C2183   1.399   1_556  A
C1630      H1635   1.082       .  S
C1631      C2182   1.399       .  A
C1631      C1632   1.402       .  A
C1632      H1636   1.083       .  S
C1637      C1638   1.406       .  A
C1637      C1642   1.400       .  A
C1637      H1643   1.083       .  S
C1638      C2191   1.405   1_556  A
C1639      C2190   1.405       .  A
C1639      C1640   1.396       .  A
C1639      H1644   1.079       .  S
C1640      C2193   1.401       .  A
C1640      H1645   1.084       .  S
C1641      C2192   1.401       .  A
C1641      C1642   1.405   1_554  A
C1642      H1646   1.083       .  S
C1647      C2200   1.407       .  A
C1647      C1652   1.400       .  A
C1647      H1653   1.083       .  S
C1648      C2199   1.407       .  A
C1648      C1649   1.404       .  A
C1649      C1650   1.392       .  A
C1649      H1654   1.083       .  S
C1650      C1651   1.401       .  A
C1650      H1655   1.084       .  S
C1651      C2204   1.402       .  A
C1652      C2203   1.402       .  A
C1652      H1656   1.083       .  S
O1657     Co1677   1.995       .  S
O1658     Co1678   2.007       .  S
O1658      C3874   1.251   1_455  A
O1659     Co1679   1.991       .  S
O1659      C1667   1.276       .  A
O1660     Co1680   1.904       .  S
O1660      C1668   1.273       .  A
O1661     Co1678   2.012       .  S
O1661      C1667   1.282       .  A
O1662     Co1677   2.096       .  S
O1662      C1668   1.299       .  A
O1663     Co1680   1.959       .  S
O1663      C3322   1.235   1_455  A
O1664     Co1679   1.971       .  S
O1664      C1665   1.268   1_556  A
C1665      C2200   1.472       .  S
C1666      O3866   1.251       .  A
C1666      O3319   1.235   1_556  A
C1666      C2180   1.442       .  S
C1667      C2130   1.476       .  S
C1668      C2143   1.474       .  S
O1669     Co1677   1.878       .  S
O1669      C1682   1.269       .  A
O1670     Co1678   1.981       .  S
O1670      C1683   1.271       .  A
O1671     Co1679   2.022       .  S
O1672     Co1680   2.154       .  S
O1672      C1685   1.319       .  A
O1673     Co1678   1.868       .  S
O1674     Co1677   1.982       .  S
O1674      C1684   1.265       .  A
O1675     Co1680   2.083       .  S
O1675      C1682   1.297       .  A
O1676     Co1679   1.987       .  S
O1676      C1683   1.271       .  A
Co1677     O1681   1.958       .  S
Co1680     O1681   2.002       .  S
C1682      C2160   1.456       .  S
C1683      C2153   1.455       .  S
C1684      C2190   1.482       .  S
C1685      C2170   1.490       .  S
O1686     Co1706   1.873       .  S
O1686      C1694   1.280       .  A
O1687     Co1707   1.955       .  S
O1687      C1695   1.251   1_556  A
O1688     Co1708   2.115       .  S
O1688      C1696   1.305       .  A
O1689     Co1709   2.015       .  S
O1689      C1697   1.276       .  A
O1690     Co1707   1.892       .  S
O1690      C1696   1.265       .  A
O1691     Co1706   2.000       .  S
O1691      C1697   1.274       .  A
O1692     Co1709   1.993       .  S
O1693     Co1708   2.145       .  S
C1694      C2110   1.498       .  S
C1695      C2183   1.450       .  S
C1696      C2090   1.481       .  S
C1697      C2100   1.485       .  S
O1698     Co1706   2.019       .  S
O1698      C1711   1.281       .  A
O1699     Co1707   2.066       .  S
O1699      C1712   1.294       .  A
O1700     Co1708   1.976       .  S
O1701     Co1709   1.978       .  S
O1702     Co1707   2.014       .  S
O1702      C1714   1.275       .  A
O1703     Co1706   2.024       .  S
O1703      C1713   1.261       .  A
O1704     Co1709   1.977       .  S
O1704      C1711   1.269       .  A
O1705     Co1708   1.899       .  S
O1705      C1712   1.275       .  A
Co1706     O1710   1.898       .  S
Co1709     O1710   2.027       .  S
C1711      C2080   1.470       .  S
C1712      C2070   1.455       .  S
C1713      C2193   1.473       .  S
O1715     Co1735   1.988       .  S
O1716     Co1736   1.996       .  S
O1716      C1724   1.266       .  A
O1717     Co1737   1.994       .  S
O1717      C1725   1.279       .  A
O1718     Co1738   1.992       .  S
O1718      C1726   1.263       .  A
O1719     Co1736   2.100       .  S
O1719      C1725   1.310       .  A
O1720     Co1735   1.995       .  S
O1720      C1726   1.262       .  A
O1721     Co1738   1.953       .  S
O1722     Co1737   1.976       .  S
O1722      C1723   1.270   1_556  A
C1723      C2203   1.463       .  S
C1724      C2050   1.440       .  S
C1725      C2013   1.500       .  S
C1726      C2020   1.475       .  S
O1727     Co1735   1.850       .  S
O1727      C1740   1.271       .  A
O1728     Co1736   1.993       .  S
O1728      C1741   1.263       .  A
O1729     Co1737   2.014       .  S
O1729      C1742   1.267       .  A
O1730     Co1738   1.996       .  S
O1731     Co1736   1.994       .  S
O1731      C1743   1.292   1_556  A
O1732     Co1735   2.003       .  S
O1733     Co1738   2.093       .  S
O1733      C1740   1.307       .  A
O1734     Co1737   1.966       .  S
O1734      C1741   1.257       .  A
Co1736     O1739   1.998       .  S
Co1737     O1739   2.050       .  S
C1740      C2040   1.451       .  S
C1741      C2033   1.475       .  S
C1742      C2060   1.486   1_556  S
C1743      C2113   1.496       .  S
O1744     Co1764   1.989       .  S
O1745     Co1765   1.972       .  S
O1746     Co1766   2.017       .  S
O1746      C1754   1.267       .  A
O1747     Co1767   2.089       .  S
O1747      C1755   1.306       .  A
O1748     Co1765   1.977       .  S
O1748      C1754   1.260       .  A
O1749     Co1764   2.008       .  S
O1749      C1755   1.281       .  A
O1750     Co1767   1.984       .  S
O1750      C1753   1.262       .  A
O1751     Co1766   2.007       .  S
O1751      C1752   1.278       .  A
C1753      C2053   1.441       .  S
C1754      C1990   1.484       .  S
C1755      C2000   1.498       .  S
O1756     Co1764   1.970       .  S
O1756      C1769   1.260       .  A
O1757     Co1765   2.111       .  S
O1757      C1770   1.312       .  A
O1758     Co1766   2.000       .  S
O1759     Co1767   1.977       .  S
O1759      C1772   1.288       .  A
O1760     Co1765   1.991       .  S
O1761     Co1764   2.018       .  S
O1761      C1771   1.264       .  A
O1762     Co1767   1.980       .  S
O1762      C1769   1.258       .  A
O1763     Co1766   1.879       .  S
O1763      C1770   1.276       .  A
Co1764     O1768   2.069       .  S
Co1767     O1768   1.999       .  S
C1769      C1980   1.473       .  S
C1770      C1970   1.474       .  S
C1771      C4271   1.486       .  S
C1772      C2123   1.482       .  S
O1773     Co1793   1.962       .  S
O1773      C1781   1.249       .  A
O1774     Co1794   1.991       .  S
O1774      C1782   1.257       .  A
O1775     Co1795   2.005       .  S
O1775      C1783   1.286       .  A
O1776     Co1796   1.966       .  S
O1776      C1784   1.245       .  A
O1777     Co1794   1.965       .  S
O1777      C1783   1.279       .  A
O1778     Co1793   1.990       .  S
O1778      C1784   1.252       .  A
O1779     Co1796   1.974       .  S
O1779      C1782   1.252       .  A
O1780     Co1795   2.027       .  S
O1780      C1781   1.266       .  A
C1781      C2083   1.471       .  S
C1782      C2073   1.463       .  S
C1783      C1940   1.485       .  S
C1784      C1950   1.455       .  S
O1785     Co1793   1.992       .  S
O1785      C1798   1.272       .  A
O1786     Co1794   2.062       .  S
O1786      C1799   1.273       .  A
O1787     Co1795   2.009       .  S
O1787      C1800   1.278       .  A
O1788     Co1796   1.965       .  S
O1788      C1801   1.256       .  A
O1789     Co1794   2.054       .  S
O1789      C1801   1.291       .  A
O1790     Co1793   1.969       .  S
O1790      C1800   1.267       .  A
O1791     Co1796   1.962       .  S
O1791      C1798   1.268       .  A
O1792     Co1795   1.970       .  S
O1792      C1799   1.236       .  A
Co1793     O1797   2.056       .  S
Co1794     O1797   2.067       .  S
Co1795     O1797   2.042       .  S
Co1796     O1797   2.084       .  S
C1799      C1960   1.470       .  S
C1800      C2163   1.454       .  S
C1801      C2150   1.464       .  S
O1802     Co1822   1.948       .  S
O1802      C1810   1.246       .  A
O1803     Co1823   1.931       .  S
O1803      C1811   1.270       .  A
O1804     Co1824   2.010       .  S
O1804      C1812   1.279       .  A
O1805     Co1825   2.019       .  S
O1805      C1813   1.267       .  A
O1806     Co1823   1.976       .  S
O1806      C1812   1.276       .  A
O1807     Co1822   1.941       .  S
O1807      C1813   1.252       .  A
O1808     Co1825   2.092       .  S
O1808      C1811   1.288       .  A
O1809     Co1824   2.081       .  S
O1809      C1810   1.278       .  A
C1810      C2103   1.495       .  S
C1811      C2093   1.489       .  S
C1812      C1910   1.485       .  S
C1813      C1953   1.450       .  S
O1814     Co1822   2.018       .  S
O1814      C1827   1.275       .  A
O1815     Co4031   2.000       .  S
O1815      C1828   1.261   1_655  A
O1816     Co1824   1.950       .  S
O1816      C1829   1.251       .  A
O1817     Co1825   1.920       .  S
O1817      C1830   1.276       .  A
O1818     Co1823   2.070       .  S
O1818      C1830   1.286       .  A
O1819     Co1822   2.063       .  S
O1819      C1829   1.280       .  A
O1820     Co1825   1.979       .  S
O1820      C1827   1.273       .  A
O1821     Co4032   1.982       .  S
O1821      C1828   1.260   1_655  A
Co1822     O1826   2.011       .  S
Co1823     O4023   2.000       .  S
Co1823     O1826   2.008       .  S
Co1824     O4029   1.982       .  S
Co1824     O1826   2.026       .  S
Co1825     O1826   2.025       .  S
C1827      C1920   1.492       .  S
C1828      C1963   1.460       .  S
C1829      C2140   1.487       .  S
C1830      C2133   1.465       .  S
O1831     Co1851   2.003       .  S
O1831      C1839   1.275       .  A
O1832     Co1852   2.023       .  S
O1832      C1840   1.248       .  A
O1833     Co1853   1.986       .  S
O1833      C1841   1.292       .  A
O1834     Co4062   1.928       .  S
O1834      C1842   1.249       .  A
O1835     Co1852   1.986       .  S
O1835      C1841   1.291       .  A
O1836     Co4059   2.000       .  S
O1836      C1842   1.260       .  A
O1837     Co1854   1.965       .  S
O1837      C1840   1.239       .  A
O1838     Co1853   1.992       .  S
O1838      C1839   1.273       .  A
C1839      C1983   1.480       .  S
C1840      C1973   1.478       .  S
C1841      C1943   1.484       .  S
C1842      C1890   1.449       .  S
O1843     Co1851   1.961       .  S
O1843      C1856   1.266       .  A
O1844     Co1852   1.998       .  S
O1844      C1857   1.255       .  A
O1845     Co1853   2.020       .  S
O1845      C1858   1.278       .  A
O1846     Co1854   2.047       .  S
O1846      C1859   1.285       .  A
O1847     Co1852   2.033       .  S
O1847      C1859   1.295       .  A
O1848     Co1851   1.957       .  S
O1848      C1858   1.261       .  A
O1849     Co1854   2.020       .  S
O1849      C1856   1.275       .  A
O1850     Co1853   2.022       .  S
O1850      C1857   1.245       .  A
Co1851     O4044   2.000   1_455  S
Co1851     O1855   2.043       .  S
Co1852     O1855   2.016       .  S
Co1853     O1855   2.073       .  S
Co1854     O4042   1.928   1_455  S
Co1854     O1855   2.025       .  S
C1856      C1913   1.487       .  S
C1857      C1900   1.459       .  S
C1858      C2043   1.452       .  S
C1859      C2030   1.489       .  S
O1860     Co1880   2.097       .  S
O1860      C1868   1.287       .  A
O1861     Co1881   2.087       .  S
O1861      C1869   1.280       .  A
O1862     Co1882   1.971       .  S
O1862      C1870   1.275       .  A
O1863     Co1883   1.953       .  S
O1863      C1871   1.254       .  A
O1864     Co1881   1.985       .  S
O1864      C1870   1.271       .  A
O1865     Co1880   1.998       .  S
O1865      C1871   1.264       .  A
O1866     Co1883   1.945       .  S
O1866      C1869   1.244       .  A
O1867     Co1882   1.935       .  S
O1867      C1868   1.272       .  A
C1868      C2003   1.488       .  S
C1869      C1993   1.494       .  S
C1870      C1933   1.457       .  S
C1871      C1893   1.448       .  S
O1872     Co1880   1.981       .  S
O1872      C1885   1.276       .  A
O1873     Co1881   1.969       .  S
O1873      C1886   1.259       .  A
O1874     Co1882   2.086       .  S
O1874      C1887   1.290       .  A
O1875     Co1883   2.087       .  S
O1875      C1888   1.283       .  A
O1876     Co1881   1.943       .  S
O1876      C1888   1.245       .  A
O1877     Co1880   1.918       .  S
O1877      C1887   1.275       .  A
O1878     Co1883   2.014       .  S
O1878      C1885   1.276       .  A
O1879     Co1882   2.010       .  S
O1879      C1886   1.265       .  A
Co1880     O1884   2.016       .  S
Co1881     O1884   2.017       .  S
Co1882     O1884   2.010       .  S
Co1883     O1884   2.011       .  S
C1885      C1923   1.491       .  S
C1886      C1903   1.459       .  S
C1887      C2023   1.475       .  S
C1888      C2010   1.497       .  S
C1889      C1890   1.394       .  A
C1889      C1894   1.392       .  A
C1889      H1895   1.084       .  S
C1890      C1891   1.403       .  A
C1891      C1892   1.385       .  A
C1891      H1896   1.083       .  S
C1892      C1893   1.392       .  A
C1892      H1897   1.084       .  S
C1893      C1894   1.407       .  A
C1894      H1898   1.082       .  S
C1899      C1900   1.400       .  A
C1899      C1904   1.401       .  A
C1899      H1905   1.083       .  S
C1900      C1901   1.403       .  A
C1901      C1902   1.390       .  A
C1901      H1906   1.084       .  S
C1902      C1903   1.397       .  A
C1902      H1907   1.083       .  S
C1903      C1904   1.406       .  A
C1904      H1908   1.084       .  S
C1909      C1910   1.406       .  A
C1909      H1915   1.083       .  S
C1910      C4119   1.408       .  A
C1911      C4118   1.408   1_455  A
C1911      C1912   1.396       .  A
C1911      H1916   1.083       .  S
C1912      H1917   1.083       .  S
C1913      C4122   1.410   1_455  A
C1914      C4121   1.410       .  A
C1914      H1918   1.083       .  S
C1919      C1920   1.405       .  A
C1919      C1924   1.404       .  A
C1919      H1925   1.083       .  S
C1920      C1921   1.411       .  A
C1921      C1922   1.404       .  A
C1921      H1926   1.083       .  S
C1922      C1923   1.405       .  A
C1922      H1927   1.083       .  S
C1923      C1924   1.410       .  A
C1924      H1928   1.083       .  S
C1929      C1930   1.407   1_565  A
C1929      C1934   1.389       .  A
C1929      H1935   1.083       .  S
C1930      C1931   1.405   1_545  A
C1931      C1932   1.397       .  A
C1932      C1933   1.404       .  A
C1932      H1937   1.084       .  S
C1933      C1934   1.398       .  A
C1934      H1938   1.083       .  S
C1939      C1940   1.407       .  A
C1939      C1944   1.407       .  A
C1939      H1945   1.082       .  S
C1940      C1941   1.406       .  A
C1941      C1942   1.394       .  A
C1941      H1946   1.083       .  S
C1942      C1943   1.403       .  A
C1942      H1947   1.083       .  S
C1943      C1944   1.408       .  A
C1944      H1948   1.083       .  S
C1949      C1950   1.397       .  A
C1949      C1954   1.385       .  A
C1949      H1955   1.084       .  S
C1950      C1951   1.403       .  A
C1951      C1952   1.397       .  A
C1951      H1956   1.080       .  S
C1952      C1953   1.400       .  A
C1952      H1957   1.084       .  S
C1953      C1954   1.402       .  A
C1954      H1958   1.083       .  S
C1959      C1960   1.403       .  A
C1959      C1964   1.392       .  A
C1959      H1965   1.083       .  S
C1960      C1961   1.406       .  A
C1961      C1962   1.401       .  A
C1961      H1966   1.083       .  S
C1962      C1963   1.401       .  A
C1962      H1967   1.083       .  S
C1963      C1964   1.400       .  A
C1964      H1968   1.083       .  S
C1969      C4178   1.407   1_455  A
C1969      C1974   1.401       .  A
C1969      H1975   1.082       .  S
C1970      C4177   1.407       .  A
C1970      C1971   1.400       .  A
C1971      C1972   1.401       .  A
C1971      H1976   1.084       .  S
C1972      C4181   1.409       .  A
C1972      H1977   1.083       .  S
C1973      C4180   1.409   1_455  A
C1973      C1974   1.401       .  A
C1974      H1978   1.082       .  S
C1979      C4188   1.401   1_455  A
C1979      C1984   1.390       .  A
C1979      H1985   1.084       .  S
C1980      C4187   1.401       .  A
C1980      C1981   1.405       .  A
C1981      C1982   1.409       .  A
C1981      H1986   1.083       .  S
C1982      C4191   1.406       .  A
C1982      H1987   1.075       .  S
C1983      C4190   1.406   1_455  A
C1983      C1984   1.404       .  A
C1984      H1988   1.084       .  S
C1989      C1990   1.409       .  A
C1989      C1994   1.402       .  A
C1989      H1995   1.077       .  S
C1990      C1991   1.398       .  A
C1991      C1992   1.405       .  A
C1991      H1996   1.083       .  S
C1992      C1993   1.418       .  A
C1992      H1997   1.083       .  S
C1993      C1994   1.398       .  A
C1994      H1998   1.079       .  S
C1999      C2000   1.410       .  A
C1999      C2004   1.406       .  A
C1999      H2005   1.075       .  S
C2000      C2001   1.404       .  A
C2001      C2002   1.408       .  A
C2001      H2006   1.083       .  S
C2002      C2003   1.408       .  A
C2002      H2007   1.078       .  S
C2003      C2004   1.401       .  A
C2004      H2008   1.082       .  S
C2009      C2010   1.414       .  A
C2009      C2014   1.405       .  A
C2009      H2015   1.083       .  S
C2010      C2011   1.400       .  A
C2011      C2012   1.407       .  A
C2011      H2016   1.080       .  S
C2012      C2013   1.410       .  A
C2012      H2017   1.072       .  S
C2013      C2014   1.405       .  A
C2014      H2018   1.083       .  S
C2019      C2020   1.401       .  A
C2019      C2024   1.401       .  A
C2019      H2025   1.083       .  S
C2020      C2021   1.405       .  A
C2021      C2022   1.401       .  A
C2021      H2026   1.081       .  S
C2022      C2023   1.402       .  A
C2022      H2027   1.083       .  S
C2023      C2024   1.408       .  A
C2024      H2028   1.083       .  S
C2029      C2030   1.411       .  A
C2029      C2034   1.400       .  A
C2029      H2035   1.081       .  S
C2030      C2031   1.403       .  A
C2031      C2032   1.404       .  A
C2031      H2036   1.083       .  S
C2032      C2033   1.409       .  A
C2032      H2037   1.083       .  S
C2033      C2034   1.399       .  A
C2034      H2038   1.084       .  S
C2039      C2040   1.403       .  A
C2039      C2044   1.388       .  A
C2039      H2045   1.085       .  S
C2040      C2041   1.400       .  A
C2041      C2042   1.397       .  A
C2041      H2046   1.080       .  S
C2042      C2043   1.401       .  A
C2042      H2047   1.084       .  S
C2043      C2044   1.395       .  A
C2044      H2048   1.080       .  S
C2049      C2054   1.389       .  A
C2049      H2055   1.084       .  S
C2050      C2051   1.396       .  A
C2051      C2052   1.390       .  A
C2051      H2056   1.084       .  S
C2052      H2057   1.084       .  S
C2053      C2054   1.395       .  A
C2054      H2058   1.084       .  S
C2059      C2064   1.403       .  A
C2061      C2062   1.399       .  A
C2062      C2063   1.408       .  A
C2062      H2067   1.083       .  S
C2063      C3979   1.486       .  S
C2063      C2064   1.405       .  A
C2064      H2068   1.083       .  S
C2069      C2070   1.397       .  A
C2069      C2074   1.393       .  A
C2069      H2075   1.084       .  S
C2070      C2071   1.402       .  A
C2071      C2072   1.396       .  A
C2071      H2076   1.083       .  S
C2072      C2073   1.402       .  A
C2072      H2077   1.083       .  S
C2073      C2074   1.405       .  A
C2074      H2078   1.082       .  S
C2079      C2080   1.399       .  A
C2079      C2084   1.397       .  A
C2079      H2085   1.083       .  S
C2080      C2081   1.403       .  A
C2081      C2082   1.404       .  A
C2081      H2086   1.083       .  S
C2082      C2083   1.404       .  A
C2082      H2087   1.077       .  S
C2083      C2084   1.409       .  A
C2084      H2088   1.084       .  S
C2089      C2090   1.408       .  A
C2089      C2094   1.408       .  A
C2089      H2095   1.076       .  S
C2090      C2091   1.401       .  A
C2091      C2092   1.399       .  A
C2091      H2096   1.084       .  S
C2092      C2093   1.407       .  A
C2092      H2097   1.079       .  S
C2093      C2094   1.405       .  A
C2094      H2098   1.083       .  S
C2099      C2100   1.408       .  A
C2099      C2104   1.407       .  A
C2099      H2105   1.078       .  S
C2100      C2101   1.400       .  A
C2101      C2102   1.403       .  A
C2101      H2106   1.083       .  S
C2102      C2103   1.414       .  A
C2102      H2107   1.083       .  S
C2103      C2104   1.402       .  A
C2104      H2108   1.078       .  S
C2109      C2110   1.408       .  A
C2109      H2115   1.083       .  S
C2111      C2112   1.401   1_545  A
C2111      H2116   1.082       .  S
C2112      C2113   1.405       .  A
C2112      H2117   1.083       .  S
C2114      H2118   1.083       .  S
C2119      C2124   1.405       .  A
C2119      H2125   1.083       .  S
C2120      C2121   1.404       .  A
C2121      C2122   1.396       .  A
C2121      H2126   1.083       .  S
C2122      C2123   1.406       .  A
C2122      H2127   1.083       .  S
C2124      H2128   1.083       .  S
C2129      C2130   1.402       .  A
C2129      C2134   1.403   1_455  A
C2129      H2135   1.083       .  S
C2130      C4339   1.404   1_455  A
C2131      C4338   1.404       .  A
C2131      C2132   1.397       .  A
C2131      H2136   1.078       .  S
C2132      C2133   1.400       .  A
C2132      H2137   1.083       .  S
C2133      C4342   1.408       .  A
C2134      C4341   1.408       .  A
C2134      H2138   1.083       .  S
C2139      C2140   1.401       .  A
C2139      C2144   1.401       .  A
C2139      H2145   1.082       .  S
C2140      C4349   1.415       .  A
C2141      C4348   1.415       .  A
C2141      C2142   1.401   1_655  A
C2141      H2146   1.083   1_655  S
C2142      C2143   1.398       .  A
C2142      H2147   1.084       .  S
C2143      C4352   1.406   1_455  A
C2144      C4351   1.406       .  A
C2144      H2148   1.082       .  S
C2149      C2150   1.399       .  A
C2149      C2154   1.392       .  A
C2149      H2155   1.079       .  S
C2150      C2151   1.403       .  A
C2151      C2152   1.399       .  A
C2151      H2156   1.083       .  S
C2152      C2153   1.403       .  A
C2152      H2157   1.082       .  S
C2153      C2154   1.401       .  A
C2154      H2158   1.084       .  S
C2159      C2160   1.402       .  A
C2159      C2164   1.397       .  A
C2159      H2165   1.083       .  S
C2160      C2161   1.400       .  A
C2161      C2162   1.391       .  A
C2161      H2166   1.077       .  S
C2162      C2163   1.399       .  A
C2162      H2167   1.085       .  S
C2163      C2164   1.400       .  A
C2164      H2168   1.083       .  S
C2169      C4378   1.408       .  A
C2169      C2174   1.408       .  A
C2169      H2175   1.083       .  S
C2170      C4377   1.408   1_455  A
C2171      C4380   1.397   1_445  A
C2171      H2176   1.083       .  S
C2172      C4379   1.397   1_565  A
C2172      H2177   1.083       .  S
C2174      H2178   1.083       .  S
C2179      C2180   1.401   1_554  A
C2179      C2184   1.391       .  A
C2179      H2185   1.083       .  S
C2181      C2182   1.380       .  A
C2181      H2186   1.084       .  S
C2182      H2187   1.082       .  S
C2183      C2184   1.402       .  A
C2184      H2188   1.083       .  S
C2189      C2190   1.406       .  A
C2189      C2194   1.400       .  A
C2189      H2195   1.083       .  S
C2191      C2192   1.396       .  A
C2191      H2196   1.079       .  S
C2192      H2197   1.084       .  S
C2193      C2194   1.405       .  A
C2194      H2198   1.083       .  S
C2199      C2204   1.400       .  A
C2199      H2205   1.083       .  S
C2200      C2201   1.404   1_554  A
C2201      C2202   1.392       .  A
C2201      H2206   1.083       .  S
C2202      C2203   1.401   1_556  A
C2202      H2207   1.084       .  S
C2204      H2208   1.083       .  S
O2209     Co2229   1.995       .  S
O2209      C2769   1.270       .  A
O2210     Co2230   2.007       .  S
O2211     Co2231   1.991       .  S
O2211      C2219   1.276       .  A
O2212     Co2232   1.904       .  S
O2212      C2220   1.273       .  A
O2213     Co2230   2.012       .  S
O2213      C2219   1.282       .  A
O2214     Co2229   2.096       .  S
O2214      C2220   1.299       .  A
O2215     Co2232   1.959       .  S
O2216     Co2231   1.971       .  S
O2216      C2217   1.268       .  A
C2217      O2761   1.270       .  A
C2217      C2752   1.472       .  S
C2218      C2732   1.442       .  S
C2219      C2682   1.476       .  S
C2220      C2695   1.474       .  S
O2221     Co2229   1.878       .  S
O2221      C2234   1.269       .  A
O2222     Co2230   1.981       .  S
O2222      C2235   1.271       .  A
O2223     Co2231   2.022       .  S
O2223      C2788   1.274       .  A
O2224     Co2232   2.154       .  S
O2224      C2237   1.319   1_554  A
O2225     Co2230   1.868       .  S
O2225      C2789   1.282       .  A
O2226     Co2229   1.982       .  S
O2226      C2236   1.265   1_554  A
O2227     Co2232   2.083       .  S
O2227      C2234   1.297       .  A
O2228     Co2231   1.987       .  S
O2228      C2235   1.271       .  A
Co2229     O2233   1.958   1_554  S
Co2230     O2785   1.887       .  S
Co2231     O2785   1.992       .  S
Co2232     O2233   2.002   1_554  S
O2233     Co2782   1.887       .  S
O2233     Co2783   1.992       .  S
C2234      C2712   1.456       .  S
C2235      C2705   1.455       .  S
C2236      O2775   1.274       .  A
C2236      C2742   1.482       .  S
C2237      O2777   1.282       .  A
C2237      C2722   1.490       .  S
O2238     Co2258   1.873       .  S
O2238      C2246   1.280       .  A
O2239     Co2259   1.955       .  S
O2239      C2247   1.251       .  A
O2240     Co2260   2.115       .  S
O2240      C2248   1.305       .  A
O2241     Co2261   2.015       .  S
O2241      C2249   1.276       .  A
O2242     Co2259   1.892       .  S
O2242      C2248   1.265       .  A
O2243     Co2258   2.000       .  S
O2243      C2249   1.274       .  A
O2244     Co2261   1.993       .  S
O2244      C2799   1.259       .  A
O2245     Co2260   2.145       .  S
O2245      C2798   1.317       .  A
C2246      O2797   1.317   1_554  A
C2246      C2662   1.498       .  S
C2247      O2796   1.259       .  A
C2247      C2735   1.450       .  S
C2248      C2642   1.481       .  S
C2249      C2652   1.485       .  S
O2250     Co2258   2.019       .  S
O2250      C2263   1.281       .  A
O2251     Co2259   2.066       .  S
O2251      C2264   1.294       .  A
O2252     Co2260   1.976       .  S
O2252      C2817   1.248       .  A
O2253     Co2261   1.978       .  S
O2253      C2818   1.272   1_554  A
O2254     Co2259   2.014       .  S
O2254      C2266   1.275       .  A
O2255     Co2258   2.024       .  S
O2255      C2265   1.261       .  A
O2256     Co2261   1.977       .  S
O2256      C2263   1.269       .  A
O2257     Co2260   1.899       .  S
O2257      C2264   1.275       .  A
Co2258     O2262   1.898       .  S
Co2259     O2814   1.955       .  S
Co2260     O2814   2.035       .  S
Co2261     O2262   2.027       .  S
O2262     Co2811   1.955   1_554  S
O2262     Co2812   2.035   1_554  S
C2263      C2632   1.470       .  S
C2264      C2622   1.455       .  S
C2265      O2804   1.248   1_554  A
C2265      C2745   1.473       .  S
C2266      O2805   1.272       .  A
C2266      C3224   1.485       .  S
O2267     Co2287   1.988       .  S
O2267      C2827   1.268       .  A
O2268     Co2288   1.996       .  S
O2268      C2276   1.266       .  A
O2269     Co2289   1.994       .  S
O2269      C2277   1.279       .  A
O2270     Co2290   1.992       .  S
O2270      C2278   1.263       .  A
O2271     Co2288   2.100       .  S
O2271      C2277   1.310       .  A
O2272     Co2287   1.995       .  S
O2272      C2278   1.262       .  A
O2273     Co2290   1.953       .  S
O2273      C2828   1.238   1_554  A
O2274     Co2289   1.976       .  S
O2274      C2275   1.270       .  A
C2275      O2819   1.268       .  A
C2275      C2755   1.463       .  S
C2276      O2825   1.238       .  A
C2276      C2602   1.440       .  S
C2277      C2565   1.500       .  S
C2278      C2572   1.475       .  S
O2279     Co2287   1.850       .  S
O2279      C2292   1.271       .  A
O2280     Co2288   1.993       .  S
O2280      C2293   1.263       .  A
O2281     Co2289   2.014       .  S
O2281      C2294   1.267       .  A
O2282     Co2290   1.996       .  S
O2282      C2847   1.295       .  A
O2283     Co2288   1.994       .  S
O2283      C2295   1.292       .  A
O2284     Co2287   2.003       .  S
O2284      C2846   1.259   1_554  A
O2285     Co2290   2.093       .  S
O2285      C2292   1.307       .  A
O2286     Co2289   1.966       .  S
O2286      C2293   1.257       .  A
Co2287     O2843   1.857   1_554  S
Co2288     O2291   1.998       .  S
Co2289     O2291   2.050       .  S
Co2290     O2843   2.102   1_554  S
O2291     Co2839   1.857       .  S
O2291     Co2842   2.102       .  S
C2292      C2592   1.451       .  S
C2293      C2585   1.475       .  S
C2294      O2836   1.259       .  A
C2294      C2612   1.486       .  S
C2295      O2834   1.295       .  A
C2295      C2665   1.496       .  S
O2296     Co2316   1.989       .  S
O2296      C2856   1.275   1_554  A
O2297     Co2317   1.972       .  S
O2297      C2857   1.241       .  A
O2298     Co2318   2.017       .  S
O2298      C2306   1.267       .  A
O2299     Co2319   2.089       .  S
O2299      C2307   1.306       .  A
O2300     Co2317   1.977       .  S
O2300      C2306   1.260       .  A
O2301     Co2316   2.008       .  S
O2301      C2307   1.281       .  A
O2302     Co2319   1.984       .  S
O2302      C2305   1.262       .  A
O2303     Co2318   2.007       .  S
O2303      C2304   1.278       .  A
C2304      O2848   1.275       .  A
C2304      C3277   1.491       .  S
C2305      O2849   1.241   1_554  A
C2305      C2605   1.441       .  S
C2306      C2542   1.484       .  S
C2307      C2552   1.498       .  S
O2308     Co2316   1.970       .  S
O2308      C2321   1.260       .  A
O2309     Co2317   2.111       .  S
O2309      C2322   1.312       .  A
O2310     Co2318   2.000       .  S
O2310      C2875   1.254   1_655  A
O2311     Co2319   1.977       .  S
O2311      C2324   1.288   1_554  A
O2312     Co2317   1.991       .  S
O2312      C2876   1.291       .  A
O2313     Co2316   2.018       .  S
O2313      C2323   1.264   1_655  A
O2314     Co2319   1.980       .  S
O2314      C2321   1.258       .  A
O2315     Co2318   1.879       .  S
O2315      C2322   1.276       .  A
Co2316     O2320   2.069       .  S
Co2317     O2872   2.109       .  S
Co2318     O2872   1.857       .  S
Co2319     O2320   1.999       .  S
O2320     Co2869   2.109   1_554  S
O2320     Co2870   1.857   1_554  S
C2321      C2532   1.473       .  S
C2322      C2522   1.474       .  S
C2323      O2862   1.254   1_454  A
C2324      O2864   1.291       .  A
C2324      C2675   1.482       .  S
O2325     Co2345   1.962       .  S
O2325      C2333   1.249       .  A
O2326     Co2346   1.991       .  S
O2326      C2334   1.257       .  A
O2327     Co2347   2.005       .  S
O2327      C2335   1.286       .  A
O2328     Co2348   1.966       .  S
O2328      C2336   1.245       .  A
O2329     Co2346   1.965       .  S
O2329      C2335   1.279       .  A
O2330     Co2345   1.990       .  S
O2330      C2336   1.252       .  A
O2331     Co2348   1.974       .  S
O2331      C2334   1.252       .  A
O2332     Co2347   2.026       .  S
O2332      C2333   1.266       .  A
C2333      C2635   1.471       .  S
C2334      C2625   1.463       .  S
C2335      C2492   1.485       .  S
C2336      C2502   1.455       .  S
O2337     Co2345   1.992       .  S
O2337      C2350   1.272       .  A
O2338     Co2346   2.062       .  S
O2338      C2351   1.273       .  A
O2339     Co2347   2.009       .  S
O2339      C2352   1.278       .  A
O2340     Co2348   1.965       .  S
O2340      C2353   1.256       .  A
O2341     Co2346   2.054       .  S
O2341      C2353   1.291       .  A
O2342     Co2345   1.969       .  S
O2342      C2352   1.267       .  A
O2343     Co2348   1.962       .  S
O2343      C2350   1.268       .  A
O2344     Co2347   1.970       .  S
O2344      C2351   1.236       .  A
Co2345     O2349   2.056       .  S
Co2346     O2349   2.067       .  S
Co2347     O2349   2.042       .  S
Co2348     O2349   2.084       .  S
C2350      C3586   1.470       .  S
C2351      C2512   1.470       .  S
C2352      C2715   1.454       .  S
C2353      C2702   1.464       .  S
O2354     Co2374   1.948       .  S
O2354      C2362   1.246       .  A
O2355     Co2375   1.931       .  S
O2355      C2363   1.270       .  A
O2356     Co2376   2.010       .  S
O2356      C2364   1.279       .  A
O2357     Co2377   2.019       .  S
O2357      C2365   1.267       .  A
O2358     Co2375   1.976       .  S
O2358      C2364   1.276       .  A
O2359     Co2374   1.941       .  S
O2359      C2365   1.252       .  A
O2360     Co2377   2.092       .  S
O2360      C2363   1.288       .  A
O2361     Co2376   2.081       .  S
O2361      C2362   1.278       .  A
C2362      C2655   1.495       .  S
C2363      C2645   1.489       .  S
C2364      C2462   1.485       .  S
C2365      C2505   1.450       .  S
O2366     Co2374   2.018       .  S
O2366      C2379   1.275       .  A
O2367      C2380   1.261       .  A
O2368     Co2376   1.950       .  S
O2368      C2381   1.251       .  A
O2369     Co2377   1.920       .  S
O2369      C2382   1.276       .  A
O2370     Co2375   2.070       .  S
O2370      C2382   1.286       .  A
O2371     Co2374   2.063       .  S
O2371      C2381   1.280       .  A
O2372     Co2377   1.979       .  S
O2372      C2379   1.273       .  A
O2373      C2380   1.260       .  A
Co2374     O2378   2.011       .  S
Co2375     O2378   2.008       .  S
Co2376     O2378   2.026       .  S
Co2377     O2378   2.025       .  S
C2379      C2472   1.492       .  S
C2380      C2515   1.460       .  S
C2381      C2692   1.487       .  S
C2382      C2685   1.465       .  S
O2383     Co2403   2.003       .  S
O2383      C2391   1.275       .  A
O2384     Co2404   2.023       .  S
O2384      C2392   1.248       .  A
O2385     Co2405   1.986       .  S
O2385      C2393   1.292       .  A
O2386      C2394   1.249       .  A
O2387     Co2404   1.986       .  S
O2387      C2393   1.291       .  A
O2388      C2394   1.260       .  A
O2389     Co2406   1.965       .  S
O2389      C2392   1.239       .  A
O2390     Co2405   1.992       .  S
O2390      C2391   1.273       .  A
C2391      C2535   1.480       .  S
C2392      C2525   1.478       .  S
C2393      C2495   1.484       .  S
C2394      C2442   1.449       .  S
O2395     Co2403   1.961       .  S
O2395      C2408   1.266       .  A
O2396     Co2404   1.998       .  S
O2396      C2409   1.255       .  A
O2397     Co2405   2.020       .  S
O2397      C2410   1.278       .  A
O2398     Co2406   2.047       .  S
O2398      C2411   1.285       .  A
O2399     Co2404   2.033       .  S
O2399      C2411   1.295       .  A
O2400     Co2403   1.957       .  S
O2400      C2410   1.261       .  A
O2401     Co2406   2.020       .  S
O2401      C2408   1.275       .  A
O2402     Co2405   2.022       .  S
O2402      C2409   1.245       .  A
Co2403     O2407   2.043       .  S
Co2404     O2407   2.016       .  S
Co2405     O2407   2.073       .  S
Co2406     O2407   2.025       .  S
C2408      C2465   1.487       .  S
C2409      C2452   1.459       .  S
C2410      C2595   1.452       .  S
C2411      C2582   1.489       .  S
O2412     Co2432   2.097       .  S
O2412      C2420   1.287       .  A
O2413     Co2433   2.087       .  S
O2413      C2421   1.280       .  A
O2414     Co2434   1.971       .  S
O2414      C2422   1.275       .  A
O2415     Co2435   1.953       .  S
O2415      C2423   1.254       .  A
O2416     Co2433   1.985       .  S
O2416      C2422   1.271       .  A
O2417     Co2432   1.998       .  S
O2417      C2423   1.264       .  A
O2418     Co2435   1.945       .  S
O2418      C2421   1.244       .  A
O2419     Co2434   1.935       .  S
O2419      C2420   1.272       .  A
C2420      C2555   1.488       .  S
C2421      C2545   1.494       .  S
C2422      C2485   1.457       .  S
C2423      C2445   1.448       .  S
O2424     Co2432   1.981       .  S
O2424      C2437   1.276       .  A
O2425     Co2433   1.969       .  S
O2425      C2438   1.259       .  A
O2426     Co2434   2.086       .  S
O2426      C2439   1.290       .  A
O2427     Co2435   2.087       .  S
O2427      C2440   1.283       .  A
O2428     Co2433   1.943       .  S
O2428      C2440   1.245       .  A
O2429     Co2432   1.918       .  S
O2429      C2439   1.275       .  A
O2430     Co2435   2.014       .  S
O2430      C2437   1.276       .  A
O2431     Co2434   2.010       .  S
O2431      C2438   1.265       .  A
Co2432     O2436   2.016       .  S
Co2433     O2436   2.018       .  S
Co2434     O2436   2.010       .  S
Co2435     O2436   2.011       .  S
C2437      C2475   1.491       .  S
C2438      C2455   1.459       .  S
C2439      C2575   1.475       .  S
C2440      C2562   1.497       .  S
C2441      C2442   1.394       .  A
C2441      C2446   1.392       .  A
C2441      H2447   1.084       .  S
C2442      C2443   1.403       .  A
C2443      C2444   1.385       .  A
C2443      H2448   1.083       .  S
C2444      C2445   1.392       .  A
C2444      H2449   1.084       .  S
C2445      C2446   1.407       .  A
C2446      H2450   1.082       .  S
C2451      C2452   1.400       .  A
C2451      C2456   1.401       .  A
C2451      H2457   1.083       .  S
C2452      C2453   1.403       .  A
C2453      C2454   1.390       .  A
C2453      H2458   1.084       .  S
C2454      C2455   1.397       .  A
C2454      H2459   1.083       .  S
C2455      C2456   1.406       .  A
C2456      H2460   1.084       .  S
C2461      C2462   1.406       .  A
C2461      C3570   1.404   1_545  A
C2461      H2467   1.083       .  S
C2463      C2464   1.396   1_545  A
C2463      H2468   1.083       .  S
C2464      C3569   1.405       .  A
C2464      H2469   1.083       .  S
C2465      C3568   1.405       .  A
C2466      C3565   1.404       .  A
C2466      H2470   1.083       .  S
C2471      C2472   1.405       .  A
C2471      C2476   1.404       .  A
C2471      H2477   1.083       .  S
C2472      C2473   1.411       .  A
C2473      C2474   1.404       .  A
C2473      H2478   1.083       .  S
C2474      C2475   1.405       .  A
C2474      H2479   1.083       .  S
C2475      C2476   1.410       .  A
C2476      H2480   1.083       .  S
C2481      C2482   1.407       .  A
C2481      C2486   1.389       .  A
C2481      H2487   1.083       .  S
C2482      C3454   1.470       .  S
C2482      C2483   1.405       .  A
C2483      C2484   1.397       .  A
C2483      H3592   1.083       .  S
C2484      C2485   1.404       .  A
C2484      H2489   1.084       .  S
C2485      C2486   1.398       .  A
C2486      H2490   1.083       .  S
H2488      C3587   1.083   1_545  S
C2491      C2492   1.407       .  A
C2491      C2496   1.407       .  A
C2491      H2497   1.082       .  S
C2492      C2493   1.406       .  A
C2493      C2494   1.394       .  A
C2493      H2498   1.083       .  S
C2494      C2495   1.403       .  A
C2494      H2499   1.083       .  S
C2495      C2496   1.408       .  A
C2496      H2500   1.083       .  S
C2501      C2502   1.397       .  A
C2501      C2506   1.385       .  A
C2501      H2507   1.084       .  S
C2502      C2503   1.403       .  A
C2503      C2504   1.397       .  A
C2503      H2508   1.080       .  S
C2504      C2505   1.400       .  A
C2504      H2509   1.084       .  S
C2505      C2506   1.402       .  A
C2506      H2510   1.083       .  S
C2511      C2512   1.403       .  A
C2511      C2516   1.392       .  A
C2511      H2517   1.083       .  S
C2512      C2513   1.406       .  A
C2513      C2514   1.401       .  A
C2513      H2518   1.083       .  S
C2514      C2515   1.401       .  A
C2514      H2519   1.083       .  S
C2515      C2516   1.399       .  A
C2516      H2520   1.083       .  S
C2521      C2526   1.401       .  A
C2521      H2527   1.082       .  S
C2522      C2523   1.400       .  A
C2523      C2524   1.401       .  A
C2523      H2528   1.084       .  S
C2524      H2529   1.083       .  S
C2525      C2526   1.401       .  A
C2526      H2530   1.082       .  S
C2531      C2536   1.390       .  A
C2531      H2537   1.084       .  S
C2532      C2533   1.405       .  A
C2533      C2534   1.409       .  A
C2533      H2538   1.083       .  S
C2534      H2539   1.075       .  S
C2535      C2536   1.404       .  A
C2536      H2540   1.084       .  S
C2541      C2542   1.409       .  A
C2541      C2546   1.402       .  A
C2541      H2547   1.077       .  S
C2542      C2543   1.398       .  A
C2543      C2544   1.405       .  A
C2543      H2548   1.083       .  S
C2544      C2545   1.418       .  A
C2544      H2549   1.083       .  S
C2545      C2546   1.398       .  A
C2546      H2550   1.079       .  S
C2551      C2552   1.410       .  A
C2551      C2556   1.406       .  A
C2551      H2557   1.075       .  S
C2552      C2553   1.405       .  A
C2553      C2554   1.408       .  A
C2553      H2558   1.083       .  S
C2554      C2555   1.408       .  A
C2554      H2559   1.078       .  S
C2555      C2556   1.401       .  A
C2556      H2560   1.082       .  S
C2561      C2562   1.414       .  A
C2561      C2566   1.405       .  A
C2561      H2567   1.083       .  S
C2562      C2563   1.400       .  A
C2563      C2564   1.407       .  A
C2563      H2568   1.080       .  S
C2564      C2565   1.410       .  A
C2564      H2569   1.072       .  S
C2565      C2566   1.405       .  A
C2566      H2570   1.083       .  S
C2571      C2572   1.401       .  A
C2571      C2576   1.401       .  A
C2571      H2577   1.083       .  S
C2572      C2573   1.405       .  A
C2573      C2574   1.401       .  A
C2573      H2578   1.081       .  S
C2574      C2575   1.402       .  A
C2574      H2579   1.083       .  S
C2575      C2576   1.408       .  A
C2576      H2580   1.083       .  S
C2581      C2582   1.411       .  A
C2581      C2586   1.400       .  A
C2581      H2587   1.081       .  S
C2582      C2583   1.403       .  A
C2583      C2584   1.404       .  A
C2583      H2588   1.083       .  S
C2584      C2585   1.409       .  A
C2584      H2589   1.083       .  S
C2585      C2586   1.399       .  A
C2586      H2590   1.084       .  S
C2591      C2592   1.403       .  A
C2591      C2596   1.388       .  A
C2591      H2597   1.085       .  S
C2592      C2593   1.400       .  A
C2593      C2594   1.397       .  A
C2593      H2598   1.080       .  S
C2594      C2595   1.401       .  A
C2594      H2599   1.084       .  S
C2595      C2596   1.395       .  A
C2596      H2600   1.080       .  S
C2601      C3154   1.402   1_554  A
C2601      C2606   1.389       .  A
C2601      H2607   1.084       .  S
C2602      C3153   1.402       .  A
C2602      C2603   1.396       .  A
C2603      C2604   1.390       .  A
C2603      H2608   1.084       .  S
C2604      C3157   1.401       .  A
C2604      H2609   1.084       .  S
C2605      C3156   1.401   1_554  A
C2605      C2606   1.395       .  A
C2606      H2610   1.084       .  S
C2611      C3164   1.408       .  A
C2611      C2616   1.403       .  A
C2611      H3169   1.081       .  S
C2612      C3163   1.408       .  A
C2612      C3165   1.404       .  A
C2613      C3164   1.404   1_556  A
C2613      C2614   1.399       .  A
C2613      H3170   1.083       .  S
C2614      C2615   1.408   1_556  A
C2614      H2619   1.083       .  S
C2615      C2616   1.405       .  A
C2616      H2620   1.083       .  S
H2617      C3163   1.081       .  S
H2618      C3165   1.083       .  S
C2621      C2622   1.397       .  A
C2621      C2626   1.393       .  A
C2621      H2627   1.084       .  S
C2622      C2623   1.402       .  A
C2623      C2624   1.396       .  A
C2623      H2628   1.083       .  S
C2624      C2625   1.402       .  A
C2624      H2629   1.083       .  S
C2625      C2626   1.405       .  A
C2626      H2630   1.082       .  S
C2631      C2632   1.399       .  A
C2631      C2636   1.397       .  A
C2631      H2637   1.083       .  S
C2632      C2633   1.403       .  A
C2633      C2634   1.404       .  A
C2633      H2638   1.083       .  S
C2634      C2635   1.404       .  A
C2634      H2639   1.077       .  S
C2635      C2636   1.409       .  A
C2636      H2640   1.084       .  S
C2641      C2642   1.408       .  A
C2641      C2646   1.408       .  A
C2641      H2647   1.076       .  S
C2642      C2643   1.401       .  A
C2643      C2644   1.399       .  A
C2643      H2648   1.084       .  S
C2644      C2645   1.407       .  A
C2644      H2649   1.079       .  S
C2645      C2646   1.405       .  A
C2646      H2650   1.083       .  S
C2651      C2652   1.408       .  A
C2651      C2656   1.407       .  A
C2651      H2657   1.078       .  S
C2652      C2653   1.400       .  A
C2653      C2654   1.403       .  A
C2653      H2658   1.083       .  S
C2654      C2655   1.414       .  A
C2654      H2659   1.083       .  S
C2655      C2656   1.402       .  A
C2656      H2660   1.078       .  S
C2661      C2662   1.408   1_556  A
C2661      C3218   1.408   1_545  A
C2661      H2667   1.083       .  S
C2662      C4319   1.410       .  A
C2663      C4318   1.410       .  A
C2663      C2664   1.401       .  A
C2663      H2668   1.082       .  S
C2664      C2665   1.405       .  A
C2664      H2669   1.083       .  S
C2665      C3770   1.410       .  A
C2666      C3213   1.408   1_565  A
C2666      C3769   1.410       .  A
C2666      H2670   1.083       .  S
C2671      C3224   1.410       .  A
C2671      C2676   1.405       .  A
C2671      H2677   1.083       .  S
C2672      C2818   1.485       .  S
C2672      C3223   1.410       .  A
C2672      C2673   1.404   1_556  A
C2673      C2674   1.396       .  A
C2673      H2678   1.083       .  S
C2674      C2675   1.406   1_554  A
C2674      H2679   1.083       .  S
C2675      C3228   1.404       .  A
C2676      C3227   1.404       .  A
C2676      H2680   1.083       .  S
C2681      C2682   1.402       .  A
C2681      C2686   1.403       .  A
C2681      H2687   1.083       .  S
C2683      C2684   1.397       .  A
C2683      H2688   1.078       .  S
C2684      C2685   1.400       .  A
C2684      H2689   1.083       .  S
C2686      H2690   1.083       .  S
C2691      C2692   1.401       .  A
C2691      C2696   1.401       .  A
C2691      H2697   1.082       .  S
C2693      C2694   1.401       .  A
C2693      H2698   1.083       .  S
C2694      C2695   1.398       .  A
C2694      H2699   1.084       .  S
C2696      H2700   1.082       .  S
C2701      C2702   1.399       .  A
C2701      C2706   1.392       .  A
C2701      H2707   1.079       .  S
C2702      C2703   1.403       .  A
C2703      C2704   1.399       .  A
C2703      H2708   1.083       .  S
C2704      C2705   1.403       .  A
C2704      H2709   1.082       .  S
C2705      C2706   1.401       .  A
C2706      H2710   1.084       .  S
C2711      C2712   1.402       .  A
C2711      C2716   1.397       .  A
C2711      H2717   1.083       .  S
C2712      C2713   1.400       .  A
C2713      C2714   1.391       .  A
C2713      H2718   1.077       .  S
C2714      C2715   1.399       .  A
C2714      H2719   1.085       .  S
C2715      C2716   1.400       .  A
C2716      H2720   1.083       .  S
C2721      C2726   1.408       .  A
C2721      H2727   1.083       .  S
C2722      C4379   1.407       .  A
C2723      C4378   1.407       .  A
C2723      H2728   1.083       .  S
C2724      C3277   1.406       .  A
C2724      H2729   1.083       .  S
C2725      C2856   1.491       .  S
C2725      C3276   1.406       .  A
C2725      C3830   1.410   1_556  A
C2726      C3829   1.410   1_544  A
C2726      H2730   1.083       .  S
C2731      C2732   1.401       .  A
C2731      C2736   1.391       .  A
C2731      H2737   1.083       .  S
C2732      C3285   1.397       .  A
C2733      C3284   1.397       .  A
C2733      C2734   1.380       .  A
C2733      H2738   1.084       .  S
C2734      C3287   1.399   1_556  A
C2734      H2739   1.082       .  S
C2735      C3286   1.399       .  A
C2735      C2736   1.402       .  A
C2736      H2740   1.083       .  S
C2741      C2742   1.406       .  A
C2741      C2746   1.400       .  A
C2741      H2747   1.083       .  S
C2742      C3295   1.405   1_556  A
C2743      C3294   1.405       .  A
C2743      C2744   1.396       .  A
C2743      H2748   1.079       .  S
C2744      C3297   1.401       .  A
C2744      H2749   1.084       .  S
C2745      C3296   1.401       .  A
C2745      C2746   1.405   1_554  A
C2746      H2750   1.083       .  S
C2751      C3304   1.407       .  A
C2751      C2756   1.400       .  A
C2751      H2757   1.083       .  S
C2752      C3303   1.407       .  A
C2752      C2753   1.404       .  A
C2753      C2754   1.392       .  A
C2753      H2758   1.083       .  S
C2754      C2755   1.401       .  A
C2754      H2759   1.084       .  S
C2755      C3308   1.402       .  A
C2756      C3307   1.402       .  A
C2756      H2760   1.083       .  S
O2761     Co2781   1.995       .  S
O2762     Co2782   2.007       .  S
O2763     Co2783   1.991       .  S
O2763      C2771   1.276       .  A
O2764     Co2784   1.904       .  S
O2764      C2772   1.273       .  A
O2765     Co2782   2.012       .  S
O2765      C2771   1.282       .  A
O2766     Co2781   2.096       .  S
O2766      C2772   1.299       .  A
O2767     Co2784   1.959       .  S
O2768     Co2783   1.971       .  S
O2768      C2769   1.268   1_556  A
C2769      C3304   1.472       .  S
C2770      C3284   1.442       .  S
C2771      C3234   1.476       .  S
C2772      C3247   1.474       .  S
O2773     Co2781   1.878       .  S
O2773      C2786   1.269       .  A
O2774     Co2782   1.981       .  S
O2774      C2787   1.271       .  A
O2775     Co2783   2.022       .  S
O2776     Co2784   2.154       .  S
O2776      C2789   1.319       .  A
O2777     Co2782   1.868       .  S
O2778     Co2781   1.982       .  S
O2778      C2788   1.265       .  A
O2779     Co2784   2.083       .  S
O2779      C2786   1.297       .  A
O2780     Co2783   1.987       .  S
O2780      C2787   1.271       .  A
Co2781     O2785   1.958       .  S
Co2784     O2785   2.002       .  S
C2786      C3264   1.456       .  S
C2787      C3257   1.455       .  S
C2788      C3294   1.482       .  S
C2789      C3274   1.490       .  S
O2790     Co2810   1.873       .  S
O2790      C2798   1.280       .  A
O2791     Co2811   1.955       .  S
O2791      C2799   1.251   1_556  A
O2792     Co2812   2.115       .  S
O2792      C2800   1.305       .  A
O2793     Co2813   2.015       .  S
O2793      C2801   1.276       .  A
O2794     Co2811   1.892       .  S
O2794      C2800   1.265       .  A
O2795     Co2810   2.000       .  S
O2795      C2801   1.274       .  A
O2796     Co2813   1.993       .  S
O2797     Co2812   2.145       .  S
C2798      C3214   1.498       .  S
C2799      C3287   1.450       .  S
C2800      C3194   1.481       .  S
C2801      C3204   1.485       .  S
O2802     Co2810   2.019       .  S
O2802      C2815   1.281       .  A
O2803     Co2811   2.066       .  S
O2803      C2816   1.294       .  A
O2804     Co2812   1.976       .  S
O2805     Co2813   1.978       .  S
O2806     Co2811   2.014       .  S
O2806      C2818   1.275       .  A
O2807     Co2810   2.024       .  S
O2807      C2817   1.261       .  A
O2808     Co2813   1.977       .  S
O2808      C2815   1.269       .  A
O2809     Co2812   1.899       .  S
O2809      C2816   1.275       .  A
Co2810     O2814   1.898       .  S
Co2813     O2814   2.027       .  S
C2815      C3184   1.470       .  S
C2816      C3174   1.455       .  S
C2817      C3297   1.473       .  S
O2819     Co2839   1.988       .  S
O2820     Co2840   1.996       .  S
O2820      C2828   1.266       .  A
O2821     Co2841   1.994       .  S
O2821      C2829   1.279       .  A
O2822     Co2842   1.992       .  S
O2822      C2830   1.263       .  A
O2823     Co2840   2.100       .  S
O2823      C2829   1.310       .  A
O2824     Co2839   1.995       .  S
O2824      C2830   1.262       .  A
O2825     Co2842   1.953       .  S
O2826     Co2841   1.976       .  S
O2826      C2827   1.270   1_556  A
C2827      C3307   1.463       .  S
C2828      C3154   1.440       .  S
C2829      C3117   1.500       .  S
C2830      C3124   1.475       .  S
O2831     Co2839   1.850       .  S
O2831      C2844   1.271       .  A
O2832     Co2840   1.993       .  S
O2832      C2845   1.263       .  A
O2833     Co2841   2.014       .  S
O2833      C2846   1.267       .  A
O2834     Co2842   1.996       .  S
O2835     Co2840   1.994       .  S
O2835      C2847   1.292   1_556  A
O2836     Co2839   2.003       .  S
O2837     Co2842   2.093       .  S
O2837      C2844   1.307       .  A
O2838     Co2841   1.966       .  S
O2838      C2845   1.257       .  A
Co2840     O2843   1.998       .  S
Co2841     O2843   2.050       .  S
C2844      C3144   1.451       .  S
C2845      C3137   1.475       .  S
C2846      C3164   1.486   1_556  S
C2847      C3217   1.496       .  S
O2848     Co2868   1.989       .  S
O2849     Co2869   1.972       .  S
O2850     Co2870   2.017       .  S
O2850      C2858   1.267       .  A
O2851     Co2871   2.089       .  S
O2851      C2859   1.306       .  A
O2852     Co2869   1.977       .  S
O2852      C2858   1.260       .  A
O2853     Co2868   2.008       .  S
O2853      C2859   1.281       .  A
O2854     Co2871   1.984       .  S
O2854      C2857   1.262       .  A
O2855     Co2870   2.007       .  S
O2855      C2856   1.278       .  A
C2857      C3157   1.441       .  S
C2858      C3094   1.484       .  S
C2859      C3104   1.498       .  S
O2860     Co2868   1.970       .  S
O2860      C2873   1.260       .  A
O2861     Co2869   2.111       .  S
O2861      C2874   1.312       .  A
O2862     Co2870   2.000       .  S
O2863     Co2871   1.977       .  S
O2863      C2876   1.288       .  A
O2864     Co2869   1.991       .  S
O2865     Co2868   2.018       .  S
O2865      C2875   1.264   1_655  A
O2866     Co2871   1.980       .  S
O2866      C2873   1.258       .  A
O2867     Co2870   1.879       .  S
O2867      C2874   1.276       .  A
Co2868     O2872   2.069       .  S
Co2871     O2872   1.999       .  S
C2873      C3084   1.473       .  S
C2874      C3074   1.474       .  S
C2876      C3227   1.482       .  S
O2877     Co2897   1.962       .  S
O2877      C2885   1.249       .  A
O2878     Co2898   1.991       .  S
O2878      C2886   1.257       .  A
O2879     Co2899   2.005       .  S
O2879      C2887   1.286       .  A
O2880     Co2900   1.966       .  S
O2880      C2888   1.245       .  A
O2881     Co2898   1.965       .  S
O2881      C2887   1.279       .  A
O2882     Co2897   1.990       .  S
O2882      C2888   1.252       .  A
O2883     Co2900   1.974       .  S
O2883      C2886   1.252       .  A
O2884     Co2899   2.027       .  S
O2884      C2885   1.266       .  A
C2885      C3187   1.471       .  S
C2886      C3177   1.463       .  S
C2887      C3044   1.485       .  S
C2888      C3054   1.455       .  S
O2889     Co2897   1.992       .  S
O2889      C2902   1.272       .  A
O2890     Co2898   2.062       .  S
O2890      C2903   1.273       .  A
O2891     Co2899   2.009       .  S
O2891      C2904   1.278       .  A
O2892     Co2900   1.965       .  S
O2892      C2905   1.256       .  A
O2893     Co2898   2.054       .  S
O2893      C2905   1.291       .  A
O2894     Co2897   1.969       .  S
O2894      C2904   1.267       .  A
O2895     Co2900   1.962       .  S
O2895      C2902   1.268       .  A
O2896     Co2899   1.970       .  S
O2896      C2903   1.236       .  A
Co2897     O2901   2.056       .  S
Co2898     O2901   2.067       .  S
Co2899     O2901   2.042       .  S
Co2900     O2901   2.084       .  S
C2902      C4138   1.470       .  S
C2903      C3064   1.470       .  S
C2904      C3267   1.454       .  S
C2905      C3254   1.464       .  S
O2906     Co2926   1.948       .  S
O2906      C2914   1.246       .  A
O2907     Co2927   1.931       .  S
O2907      C2915   1.270       .  A
O2908     Co2928   2.010       .  S
O2908      C2916   1.279       .  A
O2909     Co2929   2.019       .  S
O2909      C2917   1.267       .  A
O2910     Co2927   1.976       .  S
O2910      C2916   1.276       .  A
O2911     Co2926   1.941       .  S
O2911      C2917   1.252       .  A
O2912     Co2929   2.092       .  S
O2912      C2915   1.288       .  A
O2913     Co2928   2.081       .  S
O2913      C2914   1.278       .  A
C2914      C3207   1.495       .  S
C2915      C3197   1.489       .  S
C2916      C3014   1.485       .  S
C2917      C3057   1.450       .  S
O2918     Co2926   2.018       .  S
O2918      C2931   1.275       .  A
O2919      C2932   1.261       .  A
O2920     Co2928   1.950       .  S
O2920      C2933   1.251       .  A
O2921     Co2929   1.920       .  S
O2921      C2934   1.276       .  A
O2922     Co2927   2.070       .  S
O2922      C2934   1.286       .  A
O2923     Co2926   2.063       .  S
O2923      C2933   1.280       .  A
O2924     Co2929   1.979       .  S
O2924      C2931   1.273       .  A
O2925      C2932   1.260       .  A
Co2926     O2930   2.011       .  S
Co2927     O2930   2.008       .  S
Co2928     O2930   2.026       .  S
Co2929     O2930   2.025       .  S
C2931      C3024   1.492       .  S
C2932      C3067   1.460       .  S
C2933      C3244   1.487       .  S
C2934      C3237   1.465       .  S
O2935     Co2955   2.003       .  S
O2935      C2943   1.275       .  A
O2936     Co2956   2.023       .  S
O2936      C2944   1.248       .  A
O2937     Co2957   1.986       .  S
O2937      C2945   1.292       .  A
O2938      C2946   1.249       .  A
O2939     Co2956   1.986       .  S
O2939      C2945   1.291       .  A
O2940      C2946   1.260       .  A
O2941     Co2958   1.965       .  S
O2941      C2944   1.239       .  A
O2942     Co2957   1.992       .  S
O2942      C2943   1.273       .  A
C2943      C3087   1.480       .  S
C2944      C3077   1.478       .  S
C2945      C3047   1.484       .  S
C2946      C2994   1.449       .  S
O2947     Co2955   1.961       .  S
O2947      C2960   1.266       .  A
O2948     Co2956   1.998       .  S
O2948      C2961   1.255       .  A
O2949     Co2957   2.020       .  S
O2949      C2962   1.278       .  A
O2950     Co2958   2.047       .  S
O2950      C2963   1.285       .  A
O2951     Co2956   2.033       .  S
O2951      C2963   1.295       .  A
O2952     Co2955   1.957       .  S
O2952      C2962   1.261       .  A
O2953     Co2958   2.020       .  S
O2953      C2960   1.275       .  A
O2954     Co2957   2.022       .  S
O2954      C2961   1.245       .  A
Co2955     O2959   2.043       .  S
Co2956     O2959   2.016       .  S
Co2957     O2959   2.073       .  S
Co2958     O2959   2.025       .  S
C2960      C3017   1.487       .  S
C2961      C3004   1.459       .  S
C2962      C3147   1.452       .  S
C2963      C3134   1.489       .  S
O2964     Co2984   2.097       .  S
O2964      C2972   1.287       .  A
O2965     Co2985   2.087       .  S
O2965      C2973   1.280       .  A
O2966     Co2986   1.971       .  S
O2966      C2974   1.275       .  A
O2967     Co2987   1.953       .  S
O2967      C2975   1.254       .  A
O2968     Co2985   1.985       .  S
O2968      C2974   1.271       .  A
O2969     Co2984   1.998       .  S
O2969      C2975   1.264       .  A
O2970     Co2987   1.945       .  S
O2970      C2973   1.244       .  A
O2971     Co2986   1.935       .  S
O2971      C2972   1.272       .  A
C2972      C3107   1.488       .  S
C2973      C3097   1.494       .  S
C2974      C3037   1.457       .  S
C2975      C2997   1.448       .  S
O2976     Co2984   1.981       .  S
O2976      C2989   1.276       .  A
O2977     Co2985   1.969       .  S
O2977      C2990   1.259       .  A
O2978     Co2986   2.086       .  S
O2978      C2991   1.290       .  A
O2979     Co2987   2.087       .  S
O2979      C2992   1.283       .  A
O2980     Co2985   1.943       .  S
O2980      C2992   1.245       .  A
O2981     Co2984   1.918       .  S
O2981      C2991   1.275       .  A
O2982     Co2987   2.014       .  S
O2982      C2989   1.276       .  A
O2983     Co2986   2.010       .  S
O2983      C2990   1.265       .  A
Co2984     O2988   2.016       .  S
Co2985     O2988   2.017       .  S
Co2986     O2988   2.010       .  S
Co2987     O2988   2.011       .  S
C2989      C3027   1.491       .  S
C2990      C3007   1.459       .  S
C2991      C3127   1.475       .  S
C2992      C3114   1.497       .  S
C2993      C2994   1.394       .  A
C2993      C2998   1.392       .  A
C2993      H2999   1.084       .  S
C2994      C2995   1.403       .  A
C2995      C2996   1.385       .  A
C2995      H3000   1.083       .  S
C2996      C2997   1.392       .  A
C2996      H3001   1.084       .  S
C2997      C2998   1.407       .  A
C2998      H3002   1.082       .  S
C3003      C3004   1.400       .  A
C3003      C3008   1.401       .  A
C3003      H3009   1.083       .  S
C3004      C3005   1.403       .  A
C3005      C3006   1.390       .  A
C3005      H3010   1.084       .  S
C3006      C3007   1.397       .  A
C3006      H3011   1.083       .  S
C3007      C3008   1.406       .  A
C3008      H3012   1.084       .  S
C3013      C3014   1.406       .  A
C3013      C4122   1.404   1_545  A
C3013      H3019   1.083       .  S
C3015      C3016   1.396   1_545  A
C3015      H3020   1.083       .  S
C3016      C4121   1.405       .  A
C3016      H3021   1.083       .  S
C3017      C4120   1.405       .  A
C3018      C4117   1.404       .  A
C3018      H3022   1.083       .  S
C3023      C3024   1.405       .  A
C3023      C3028   1.404       .  A
C3023      H3029   1.083       .  S
C3024      C3025   1.411       .  A
C3025      C3026   1.404       .  A
C3025      H3030   1.083       .  S
C3026      C3027   1.405       .  A
C3026      H3031   1.083       .  S
C3027      C3028   1.410       .  A
C3028      H3032   1.083       .  S
C3033      C3034   1.407       .  A
C3033      C3038   1.389       .  A
C3033      H3039   1.083       .  S
C3034      C4006   1.470       .  S
C3034      C3035   1.405       .  A
C3035      C3036   1.397       .  A
C3035      H4144   1.083       .  S
C3036      C3037   1.404       .  A
C3036      H3041   1.084       .  S
C3037      C3038   1.398       .  A
C3038      H3042   1.083       .  S
H3040      C4139   1.083   1_545  S
C3043      C3044   1.407       .  A
C3043      C3048   1.407       .  A
C3043      H3049   1.082       .  S
C3044      C3045   1.406       .  A
C3045      C3046   1.394       .  A
C3045      H3050   1.083       .  S
C3046      C3047   1.403       .  A
C3046      H3051   1.083       .  S
C3047      C3048   1.408       .  A
C3048      H3052   1.083       .  S
C3053      C3054   1.397       .  A
C3053      C3058   1.385       .  A
C3053      H3059   1.084       .  S
C3054      C3055   1.403       .  A
C3055      C3056   1.397       .  A
C3055      H3060   1.080       .  S
C3056      C3057   1.400       .  A
C3056      H3061   1.084       .  S
C3057      C3058   1.402       .  A
C3058      H3062   1.083       .  S
C3063      C3064   1.403       .  A
C3063      C3068   1.392       .  A
C3063      H3069   1.083       .  S
C3064      C3065   1.406       .  A
C3065      C3066   1.401       .  A
C3065      H3070   1.083       .  S
C3066      C3067   1.401       .  A
C3066      H3071   1.083       .  S
C3067      C3068   1.400       .  A
C3068      H3072   1.083       .  S
C3073      C3078   1.401       .  A
C3073      H3079   1.082       .  S
C3074      C3075   1.400       .  A
C3075      C3076   1.401       .  A
C3075      H3080   1.084       .  S
C3076      H3081   1.083       .  S
C3077      C3078   1.401       .  A
C3078      H3082   1.082       .  S
C3083      C3088   1.390       .  A
C3083      H3089   1.084       .  S
C3084      C3085   1.405       .  A
C3085      C3086   1.409       .  A
C3085      H3090   1.083       .  S
C3086      H3091   1.075       .  S
C3087      C3088   1.404       .  A
C3088      H3092   1.084       .  S
C3093      C3094   1.409       .  A
C3093      C3098   1.402       .  A
C3093      H3099   1.077       .  S
C3094      C3095   1.398       .  A
C3095      C3096   1.405       .  A
C3095      H3100   1.083       .  S
C3096      C3097   1.418       .  A
C3096      H3101   1.083       .  S
C3097      C3098   1.398       .  A
C3098      H3102   1.079       .  S
C3103      C3104   1.410       .  A
C3103      C3108   1.406       .  A
C3103      H3109   1.075       .  S
C3104      C3105   1.404       .  A
C3105      C3106   1.408       .  A
C3105      H3110   1.083       .  S
C3106      C3107   1.408       .  A
C3106      H3111   1.078       .  S
C3107      C3108   1.401       .  A
C3108      H3112   1.082       .  S
C3113      C3114   1.414       .  A
C3113      C3118   1.405       .  A
C3113      H3119   1.083       .  S
C3114      C3115   1.400       .  A
C3115      C3116   1.407       .  A
C3115      H3120   1.080       .  S
C3116      C3117   1.410       .  A
C3116      H3121   1.072       .  S
C3117      C3118   1.405       .  A
C3118      H3122   1.083       .  S
C3123      C3124   1.401       .  A
C3123      C3128   1.401       .  A
C3123      H3129   1.083       .  S
C3124      C3125   1.405       .  A
C3125      C3126   1.401       .  A
C3125      H3130   1.081       .  S
C3126      C3127   1.402       .  A
C3126      H3131   1.083       .  S
C3127      C3128   1.408       .  A
C3128      H3132   1.083       .  S
C3133      C3134   1.411       .  A
C3133      C3138   1.400       .  A
C3133      H3139   1.081       .  S
C3134      C3135   1.403       .  A
C3135      C3136   1.404       .  A
C3135      H3140   1.083       .  S
C3136      C3137   1.409       .  A
C3136      H3141   1.083       .  S
C3137      C3138   1.399       .  A
C3138      H3142   1.084       .  S
C3143      C3144   1.403       .  A
C3143      C3148   1.388       .  A
C3143      H3149   1.085       .  S
C3144      C3145   1.400       .  A
C3145      C3146   1.397       .  A
C3145      H3150   1.080       .  S
C3146      C3147   1.401       .  A
C3146      H3151   1.084       .  S
C3147      C3148   1.395       .  A
C3148      H3152   1.080       .  S
C3153      C3158   1.389       .  A
C3153      H3159   1.084       .  S
C3154      C3155   1.396       .  A
C3155      C3156   1.390       .  A
C3155      H3160   1.084       .  S
C3156      H3161   1.084       .  S
C3157      C3158   1.395       .  A
C3158      H3162   1.084       .  S
C3163      C3168   1.403       .  A
C3165      C3166   1.399       .  A
C3166      C3167   1.408       .  A
C3166      H3171   1.083       .  S
C3167      C3168   1.405       .  A
C3168      H3172   1.083       .  S
C3173      C3174   1.397       .  A
C3173      C3178   1.393       .  A
C3173      H3179   1.084       .  S
C3174      C3175   1.402       .  A
C3175      C3176   1.396       .  A
C3175      H3180   1.083       .  S
C3176      C3177   1.402       .  A
C3176      H3181   1.083       .  S
C3177      C3178   1.405       .  A
C3178      H3182   1.082       .  S
C3183      C3184   1.399       .  A
C3183      C3188   1.397       .  A
C3183      H3189   1.083       .  S
C3184      C3185   1.403       .  A
C3185      C3186   1.404       .  A
C3185      H3190   1.083       .  S
C3186      C3187   1.404       .  A
C3186      H3191   1.077       .  S
C3187      C3188   1.409       .  A
C3188      H3192   1.084       .  S
C3193      C3194   1.408       .  A
C3193      C3198   1.408       .  A
C3193      H3199   1.076       .  S
C3194      C3195   1.401       .  A
C3195      C3196   1.399       .  A
C3195      H3200   1.084       .  S
C3196      C3197   1.407       .  A
C3196      H3201   1.079       .  S
C3197      C3198   1.405       .  A
C3198      H3202   1.083       .  S
C3203      C3204   1.408       .  A
C3203      C3208   1.407       .  A
C3203      H3209   1.078       .  S
C3204      C3205   1.400       .  A
C3205      C3206   1.403       .  A
C3205      H3210   1.083       .  S
C3206      C3207   1.414       .  A
C3206      H3211   1.083       .  S
C3207      C3208   1.402       .  A
C3208      H3212   1.078       .  S
C3213      C3214   1.408       .  A
C3213      H3219   1.083       .  S
C3214      C3767   1.410       .  A
C3215      C3766   1.410       .  A
C3215      C3216   1.401       .  A
C3215      H3220   1.082       .  S
C3216      C3217   1.405       .  A
C3216      H3221   1.083       .  S
C3217      C4322   1.410   1_554  A
C3218      C4321   1.410   1_556  A
C3218      H3222   1.083       .  S
C3223      C3228   1.405       .  A
C3223      H3229   1.083       .  S
C3224      C3225   1.404       .  A
C3225      C3226   1.396       .  A
C3225      H3230   1.083       .  S
C3226      C3227   1.406       .  A
C3226      H3231   1.083       .  S
C3228      H3232   1.083       .  S
C3233      C3234   1.402       .  A
C3233      C3238   1.403       .  A
C3233      H3239   1.083       .  S
C3235      C3236   1.397       .  A
C3235      H3240   1.078       .  S
C3236      C3237   1.400       .  A
C3236      H3241   1.083       .  S
C3238      H3242   1.083       .  S
C3243      C3244   1.401       .  A
C3243      C3248   1.401       .  A
C3243      H3249   1.082       .  S
C3245      C3246   1.401       .  A
C3245      H3250   1.083       .  S
C3246      C3247   1.398       .  A
C3246      H3251   1.084       .  S
C3248      H3252   1.082       .  S
C3253      C3254   1.399       .  A
C3253      C3258   1.392       .  A
C3253      H3259   1.079       .  S
C3254      C3255   1.403       .  A
C3255      C3256   1.399       .  A
C3255      H3260   1.083       .  S
C3256      C3257   1.403       .  A
C3256      H3261   1.082       .  S
C3257      C3258   1.401       .  A
C3258      H3262   1.084       .  S
C3263      C3264   1.402       .  A
C3263      C3268   1.397       .  A
C3263      H3269   1.083       .  S
C3264      C3265   1.400       .  A
C3265      C3266   1.391       .  A
C3265      H3270   1.077       .  S
C3266      C3267   1.399       .  A
C3266      H3271   1.085       .  S
C3267      C3268   1.400       .  A
C3268      H3272   1.083       .  S
C3273      C3278   1.408       .  A
C3273      H3279   1.083       .  S
C3274      C3827   1.407       .  A
C3275      C3826   1.407       .  A
C3275      H3280   1.083       .  S
C3276      H3281   1.083       .  S
C3277      C4382   1.410       .  A
C3278      C4381   1.410   1_545  A
C3278      H3282   1.083       .  S
C3283      C3284   1.401   1_554  A
C3283      C3288   1.391       .  A
C3283      H3289   1.083       .  S
C3285      C3286   1.380       .  A
C3285      H3290   1.084       .  S
C3286      H3291   1.082       .  S
C3287      C3288   1.402       .  A
C3288      H3292   1.083       .  S
C3293      C3294   1.406       .  A
C3293      C3298   1.400       .  A
C3293      H3299   1.083       .  S
C3295      C3296   1.396       .  A
C3295      H3300   1.079       .  S
C3296      H3301   1.084       .  S
C3297      C3298   1.405       .  A
C3298      H3302   1.083       .  S
C3303      C3308   1.400       .  A
C3303      H3309   1.083       .  S
C3304      C3305   1.404   1_554  A
C3305      C3306   1.392       .  A
C3305      H3310   1.083       .  S
C3306      C3307   1.401   1_556  A
C3306      H3311   1.084       .  S
C3308      H3312   1.083       .  S
O3313     Co3333   1.995       .  S
O3313      C3873   1.270       .  A
O3314     Co3334   2.007       .  S
O3315     Co3335   1.991       .  S
O3315      C3323   1.276       .  A
O3316     Co3336   1.904       .  S
O3316      C3324   1.273       .  A
O3317     Co3334   2.012       .  S
O3317      C3323   1.282       .  A
O3318     Co3333   2.096       .  S
O3318      C3324   1.299       .  A
O3319     Co3336   1.959       .  S
O3320     Co3335   1.971       .  S
O3320      C3321   1.268       .  A
C3321      O3865   1.270       .  A
C3321      C3856   1.472       .  S
C3322      C3836   1.442       .  S
C3323      C3786   1.476       .  S
C3324      C3799   1.474       .  S
O3325     Co3333   1.878       .  S
O3325      C3338   1.269       .  A
O3326     Co3334   1.981       .  S
O3326      C3339   1.271       .  A
O3327     Co3335   2.022       .  S
O3327      C3892   1.274       .  A
O3328     Co3336   2.154       .  S
O3328      C3341   1.319   1_554  A
O3329     Co3334   1.868       .  S
O3329      C3893   1.282       .  A
O3330     Co3333   1.982       .  S
O3330      C3340   1.265   1_554  A
O3331     Co3336   2.083       .  S
O3331      C3338   1.297       .  A
O3332     Co3335   1.987       .  S
O3332      C3339   1.271       .  A
Co3333     O3337   1.958   1_554  S
Co3334     O3889   1.887       .  S
Co3335     O3889   1.992       .  S
Co3336     O3337   2.002   1_554  S
O3337     Co3886   1.887       .  S
O3337     Co3887   1.992       .  S
C3338      C3816   1.456       .  S
C3339      C3809   1.455       .  S
C3340      O3879   1.274       .  A
C3340      C3846   1.482       .  S
C3341      O3881   1.282       .  A
C3341      C3826   1.490       .  S
O3342     Co3362   1.873       .  S
O3342      C3350   1.280       .  A
O3343     Co3363   1.955       .  S
O3343      C3351   1.251       .  A
O3344     Co3364   2.115       .  S
O3344      C3352   1.305       .  A
O3345     Co3365   2.015       .  S
O3345      C3353   1.276       .  A
O3346     Co3363   1.892       .  S
O3346      C3352   1.265       .  A
O3347     Co3362   2.000       .  S
O3347      C3353   1.274       .  A
O3348     Co3365   1.993       .  S
O3348      C3903   1.259       .  A
O3349     Co3364   2.145       .  S
O3349      C3902   1.317       .  A
C3350      O3901   1.317   1_554  A
C3350      C3766   1.498       .  S
C3351      O3900   1.259       .  A
C3351      C3839   1.450       .  S
C3352      C3746   1.481       .  S
C3353      C3756   1.485       .  S
O3354     Co3362   2.019       .  S
O3354      C3367   1.281       .  A
O3355     Co3363   2.066       .  S
O3355      C3368   1.294       .  A
O3356     Co3364   1.976       .  S
O3356      C3921   1.248       .  A
O3357     Co3365   1.978       .  S
O3357      C3922   1.272   1_554  A
O3358     Co3363   2.014       .  S
O3358      C3370   1.275       .  A
O3359     Co3362   2.024       .  S
O3359      C3369   1.261       .  A
O3360     Co3365   1.977       .  S
O3360      C3367   1.269       .  A
O3361     Co3364   1.899       .  S
O3361      C3368   1.275       .  A
Co3362     O3366   1.898       .  S
Co3363     O3918   1.955       .  S
Co3364     O3918   2.035       .  S
Co3365     O3366   2.027       .  S
O3366     Co3915   1.955   1_554  S
O3366     Co3916   2.035   1_554  S
C3367      C3736   1.470       .  S
C3368      C3726   1.455       .  S
C3369      O3908   1.248   1_554  A
C3369      C3849   1.473       .  S
C3370      O3909   1.272       .  A
C3370      C4328   1.485       .  S
O3371     Co3391   1.988       .  S
O3371      C3931   1.268       .  A
O3372     Co3392   1.996       .  S
O3372      C3380   1.266       .  A
O3373     Co3393   1.994       .  S
O3373      C3381   1.279       .  A
O3374     Co3394   1.992       .  S
O3374      C3382   1.263       .  A
O3375     Co3392   2.100       .  S
O3375      C3381   1.310       .  A
O3376     Co3391   1.995       .  S
O3376      C3382   1.262       .  A
O3377     Co3394   1.953       .  S
O3377      C3932   1.238   1_554  A
O3378     Co3393   1.976       .  S
O3378      C3379   1.270       .  A
C3379      O3923   1.268       .  A
C3379      C3859   1.463       .  S
C3380      O3929   1.238       .  A
C3380      C3706   1.440       .  S
C3381      C3669   1.500       .  S
C3382      C3676   1.475       .  S
O3383     Co3391   1.850       .  S
O3383      C3396   1.271       .  A
O3384     Co3392   1.993       .  S
O3384      C3397   1.263       .  A
O3385     Co3393   2.014       .  S
O3385      C3398   1.267       .  A
O3386     Co3394   1.996       .  S
O3386      C3951   1.295       .  A
O3387     Co3392   1.994       .  S
O3387      C3399   1.292       .  A
O3388     Co3391   2.003       .  S
O3388      C3950   1.259   1_554  A
O3389     Co3394   2.093       .  S
O3389      C3396   1.307       .  A
O3390     Co3393   1.966       .  S
O3390      C3397   1.257       .  A
Co3391     O3947   1.857   1_554  S
Co3392     O3395   1.998       .  S
Co3393     O3395   2.050       .  S
Co3394     O3947   2.102   1_554  S
O3395     Co3943   1.857       .  S
O3395     Co3946   2.102       .  S
C3396      C3696   1.451       .  S
C3397      C3689   1.475       .  S
C3398      O3940   1.259       .  A
C3398      C3716   1.486       .  S
C3399      O3938   1.295       .  A
C3399      C3769   1.496       .  S
O3400     Co3420   1.989       .  S
O3400      C3960   1.275   1_554  A
O3401     Co3421   1.972       .  S
O3401      C3961   1.241       .  A
O3402     Co3422   2.017       .  S
O3402      C3410   1.267       .  A
O3403     Co3423   2.089       .  S
O3403      C3411   1.306       .  A
O3404     Co3421   1.977       .  S
O3404      C3410   1.260       .  A
O3405     Co3420   2.008       .  S
O3405      C3411   1.281       .  A
O3406     Co3423   1.984       .  S
O3406      C3409   1.262       .  A
O3407     Co3422   2.007       .  S
O3407      C3408   1.278       .  A
C3408      O3952   1.275       .  A
C3408      C4381   1.491       .  S
C3409      O3953   1.241   1_554  A
C3409      C3709   1.441       .  S
C3410      C3646   1.484       .  S
C3411      C3656   1.498       .  S
O3412     Co3420   1.970       .  S
O3412      C3425   1.260       .  A
O3413     Co3421   2.111       .  S
O3413      C3426   1.312       .  A
O3414     Co3422   2.000       .  S
O3414      C3979   1.254   1_655  A
O3415     Co3423   1.977       .  S
O3415      C3428   1.288   1_554  A
O3416     Co3421   1.991       .  S
O3416      C3980   1.291       .  A
O3417     Co3420   2.018       .  S
O3417      C3427   1.264   1_655  A
O3418     Co3423   1.980       .  S
O3418      C3425   1.258       .  A
O3419     Co3422   1.879       .  S
O3419      C3426   1.276       .  A
Co3420     O3424   2.069       .  S
Co3421     O3976   2.109       .  S
Co3422     O3976   1.857       .  S
Co3423     O3424   1.999       .  S
O3424     Co3973   2.109   1_554  S
O3424     Co3974   1.857   1_554  S
C3425      C3636   1.473       .  S
C3426      C3626   1.474       .  S
C3427      O3966   1.254   1_454  A
C3428      O3968   1.291       .  A
C3428      C3779   1.482       .  S
O3429     Co3449   1.962       .  S
O3429      C3437   1.249       .  A
O3430     Co3450   1.991       .  S
O3430      C3438   1.257       .  A
O3431     Co3451   2.005       .  S
O3431      C3439   1.286       .  A
O3432     Co3452   1.966       .  S
O3432      C3440   1.245       .  A
O3433     Co3450   1.965       .  S
O3433      C3439   1.279       .  A
O3434     Co3449   1.990       .  S
O3434      C3440   1.252       .  A
O3435     Co3452   1.974       .  S
O3435      C3438   1.252       .  A
O3436     Co3451   2.026       .  S
O3436      C3437   1.266       .  A
C3437      C3739   1.471       .  S
C3438      C3729   1.463       .  S
C3439      C3596   1.485       .  S
C3440      C3606   1.455       .  S
O3441     Co3449   1.992       .  S
O3441      C3454   1.272       .  A
O3442     Co3450   2.062       .  S
O3442      C3455   1.273       .  A
O3443     Co3451   2.009       .  S
O3443      C3456   1.278       .  A
O3444     Co3452   1.965       .  S
O3444      C3457   1.256       .  A
O3445     Co3450   2.054       .  S
O3445      C3457   1.291       .  A
O3446     Co3449   1.969       .  S
O3446      C3456   1.267       .  A
O3447     Co3452   1.962       .  S
O3447      C3454   1.268       .  A
O3448     Co3451   1.970       .  S
O3448      C3455   1.236       .  A
Co3449     O3453   2.056       .  S
Co3450     O3453   2.067       .  S
Co3451     O3453   2.042       .  S
Co3452     O3453   2.084       .  S
C3455      C3616   1.470       .  S
C3456      C3819   1.454       .  S
C3457      C3806   1.464       .  S
O3458     Co3478   1.948       .  S
O3458      C3466   1.246       .  A
O3459     Co3479   1.931       .  S
O3459      C3467   1.270       .  A
O3460     Co3480   2.010       .  S
O3460      C3468   1.279       .  A
O3461     Co3481   2.019       .  S
O3461      C3469   1.267       .  A
O3462     Co3479   1.976       .  S
O3462      C3468   1.276       .  A
O3463     Co3478   1.941       .  S
O3463      C3469   1.252       .  A
O3464     Co3481   2.092       .  S
O3464      C3467   1.288       .  A
O3465     Co3480   2.081       .  S
O3465      C3466   1.278       .  A
C3466      C3759   1.495       .  S
C3467      C3749   1.489       .  S
C3468      C3566   1.485       .  S
C3469      C3609   1.450       .  S
O3470     Co3478   2.018       .  S
O3470      C3483   1.275       .  A
O3471      C3484   1.261       .  A
O3472     Co3480   1.950       .  S
O3472      C3485   1.251       .  A
O3473     Co3481   1.920       .  S
O3473      C3486   1.276       .  A
O3474     Co3479   2.070       .  S
O3474      C3486   1.286       .  A
O3475     Co3478   2.063       .  S
O3475      C3485   1.280       .  A
O3476     Co3481   1.979       .  S
O3476      C3483   1.273       .  A
O3477      C3484   1.260       .  A
Co3478     O3482   2.011       .  S
Co3479     O3482   2.008       .  S
Co3480     O3482   2.026       .  S
Co3481     O3482   2.025       .  S
C3483      C3576   1.492       .  S
C3484      C3619   1.460       .  S
C3485      C3796   1.487       .  S
C3486      C3789   1.465       .  S
O3487     Co3507   2.003       .  S
O3487      C3495   1.275       .  A
O3488     Co3508   2.023       .  S
O3488      C3496   1.248       .  A
O3489     Co3509   1.986       .  S
O3489      C3497   1.292       .  A
O3490      C3498   1.249       .  A
O3491     Co3508   1.986       .  S
O3491      C3497   1.291       .  A
O3492      C3498   1.260       .  A
O3493     Co3510   1.965       .  S
O3493      C3496   1.239       .  A
O3494     Co3509   1.992       .  S
O3494      C3495   1.273       .  A
C3495      C3639   1.480       .  S
C3496      C3629   1.478       .  S
C3497      C3599   1.484       .  S
C3498      C3546   1.449       .  S
O3499     Co3507   1.961       .  S
O3499      C3512   1.266       .  A
O3500     Co3508   1.998       .  S
O3500      C3513   1.255       .  A
O3501     Co3509   2.020       .  S
O3501      C3514   1.278       .  A
O3502     Co3510   2.047       .  S
O3502      C3515   1.285       .  A
O3503     Co3508   2.033       .  S
O3503      C3515   1.295       .  A
O3504     Co3507   1.957       .  S
O3504      C3514   1.261       .  A
O3505     Co3510   2.020       .  S
O3505      C3512   1.275       .  A
O3506     Co3509   2.022       .  S
O3506      C3513   1.245       .  A
Co3507     O3511   2.043       .  S
Co3508     O3511   2.016       .  S
Co3509     O3511   2.073       .  S
Co3510     O3511   2.025       .  S
C3512      C3569   1.487       .  S
C3513      C3556   1.459       .  S
C3514      C3699   1.452       .  S
C3515      C3686   1.489       .  S
O3516     Co3536   2.097       .  S
O3516      C3524   1.287       .  A
O3517     Co3537   2.087       .  S
O3517      C3525   1.280       .  A
O3518     Co3538   1.971       .  S
O3518      C3526   1.275       .  A
O3519     Co3539   1.953       .  S
O3519      C3527   1.254       .  A
O3520     Co3537   1.985       .  S
O3520      C3526   1.271       .  A
O3521     Co3536   1.998       .  S
O3521      C3527   1.264       .  A
O3522     Co3539   1.945       .  S
O3522      C3525   1.244       .  A
O3523     Co3538   1.935       .  S
O3523      C3524   1.272       .  A
C3524      C3659   1.488       .  S
C3525      C3649   1.494       .  S
C3526      C3589   1.457       .  S
C3527      C3549   1.448       .  S
O3528     Co3536   1.981       .  S
O3528      C3541   1.276       .  A
O3529     Co3537   1.969       .  S
O3529      C3542   1.259       .  A
O3530     Co3538   2.086       .  S
O3530      C3543   1.290       .  A
O3531     Co3539   2.087       .  S
O3531      C3544   1.283       .  A
O3532     Co3537   1.943       .  S
O3532      C3544   1.245       .  A
O3533     Co3536   1.918       .  S
O3533      C3543   1.275       .  A
O3534     Co3539   2.014       .  S
O3534      C3541   1.276       .  A
O3535     Co3538   2.010       .  S
O3535      C3542   1.265       .  A
Co3536     O3540   2.016       .  S
Co3537     O3540   2.018       .  S
Co3538     O3540   2.010       .  S
Co3539     O3540   2.011       .  S
C3541      C3579   1.491       .  S
C3542      C3559   1.459       .  S
C3543      C3679   1.475       .  S
C3544      C3666   1.497       .  S
C3545      C3546   1.394       .  A
C3545      C3550   1.392       .  A
C3545      H3551   1.084       .  S
C3546      C3547   1.403       .  A
C3547      C3548   1.385       .  A
C3547      H3552   1.083       .  S
C3548      C3549   1.392       .  A
C3548      H3553   1.084       .  S
C3549      C3550   1.407       .  A
C3550      H3554   1.082       .  S
C3555      C3556   1.400       .  A
C3555      C3560   1.401       .  A
C3555      H3561   1.083       .  S
C3556      C3557   1.403       .  A
C3557      C3558   1.390       .  A
C3557      H3562   1.084       .  S
C3558      C3559   1.397       .  A
C3558      H3563   1.083       .  S
C3559      C3560   1.406       .  A
C3560      H3564   1.084       .  S
C3565      C3566   1.406       .  A
C3565      H3571   1.083       .  S
C3567      C3568   1.396       .  A
C3567      H3572   1.083       .  S
C3568      H3573   1.083       .  S
C3570      H3574   1.083       .  S
C3575      C3576   1.405       .  A
C3575      C3580   1.404       .  A
C3575      H3581   1.083       .  S
C3576      C3577   1.411       .  A
C3577      C3578   1.404       .  A
C3577      H3582   1.083       .  S
C3578      C3579   1.405       .  A
C3578      H3583   1.083       .  S
C3579      C3580   1.410       .  A
C3580      H3584   1.083       .  S
C3585      C3586   1.407   1_565  A
C3585      C3590   1.389       .  A
C3585      H3591   1.083       .  S
C3586      C3587   1.405   1_545  A
C3587      C3588   1.397       .  A
C3588      C3589   1.404       .  A
C3588      H3593   1.084       .  S
C3589      C3590   1.398       .  A
C3590      H3594   1.083       .  S
C3595      C3596   1.407       .  A
C3595      C3600   1.407       .  A
C3595      H3601   1.082       .  S
C3596      C3597   1.406       .  A
C3597      C3598   1.394       .  A
C3597      H3602   1.083       .  S
C3598      C3599   1.403       .  A
C3598      H3603   1.083       .  S
C3599      C3600   1.408       .  A
C3600      H3604   1.083       .  S
C3605      C3606   1.397       .  A
C3605      C3610   1.385       .  A
C3605      H3611   1.084       .  S
C3606      C3607   1.403       .  A
C3607      C3608   1.397       .  A
C3607      H3612   1.080       .  S
C3608      C3609   1.400       .  A
C3608      H3613   1.084       .  S
C3609      C3610   1.402       .  A
C3610      H3614   1.083       .  S
C3615      C3616   1.403       .  A
C3615      C3620   1.392       .  A
C3615      H3621   1.083       .  S
C3616      C3617   1.406       .  A
C3617      C3618   1.401       .  A
C3617      H3622   1.083       .  S
C3618      C3619   1.401       .  A
C3618      H3623   1.083       .  S
C3619      C3620   1.400       .  A
C3620      H3624   1.083       .  S
C3625      C3630   1.401       .  A
C3625      H3631   1.082       .  S
C3626      C3627   1.400       .  A
C3627      C3628   1.401       .  A
C3627      H3632   1.084       .  S
C3628      H3633   1.083       .  S
C3629      C3630   1.401       .  A
C3630      H3634   1.082       .  S
C3635      C3640   1.390       .  A
C3635      H3641   1.084       .  S
C3636      C3637   1.405       .  A
C3637      C3638   1.409       .  A
C3637      H3642   1.083       .  S
C3638      H3643   1.075       .  S
C3639      C3640   1.404       .  A
C3640      H3644   1.084       .  S
C3645      C3646   1.409       .  A
C3645      C3650   1.402       .  A
C3645      H3651   1.077       .  S
C3646      C3647   1.398       .  A
C3647      C3648   1.405       .  A
C3647      H3652   1.083       .  S
C3648      C3649   1.418       .  A
C3648      H3653   1.083       .  S
C3649      C3650   1.398       .  A
C3650      H3654   1.079       .  S
C3655      C3656   1.410       .  A
C3655      C3660   1.406       .  A
C3655      H3661   1.075       .  S
C3656      C3657   1.405       .  A
C3657      C3658   1.408       .  A
C3657      H3662   1.083       .  S
C3658      C3659   1.408       .  A
C3658      H3663   1.078       .  S
C3659      C3660   1.401       .  A
C3660      H3664   1.082       .  S
C3665      C3666   1.414       .  A
C3665      C3670   1.405       .  A
C3665      H3671   1.083       .  S
C3666      C3667   1.400       .  A
C3667      C3668   1.407       .  A
C3667      H3672   1.080       .  S
C3668      C3669   1.410       .  A
C3668      H3673   1.072       .  S
C3669      C3670   1.405       .  A
C3670      H3674   1.083       .  S
C3675      C3676   1.401       .  A
C3675      C3680   1.401       .  A
C3675      H3681   1.083       .  S
C3676      C3677   1.405       .  A
C3677      C3678   1.401       .  A
C3677      H3682   1.081       .  S
C3678      C3679   1.402       .  A
C3678      H3683   1.083       .  S
C3679      C3680   1.408       .  A
C3680      H3684   1.083       .  S
C3685      C3686   1.411       .  A
C3685      C3690   1.400       .  A
C3685      H3691   1.081       .  S
C3686      C3687   1.403       .  A
C3687      C3688   1.404       .  A
C3687      H3692   1.083       .  S
C3688      C3689   1.409       .  A
C3688      H3693   1.083       .  S
C3689      C3690   1.399       .  A
C3690      H3694   1.084       .  S
C3695      C3696   1.403       .  A
C3695      C3700   1.388       .  A
C3695      H3701   1.085       .  S
C3696      C3697   1.400       .  A
C3697      C3698   1.397       .  A
C3697      H3702   1.080       .  S
C3698      C3699   1.401       .  A
C3698      H3703   1.084       .  S
C3699      C3700   1.395       .  A
C3700      H3704   1.080       .  S
C3705      C4258   1.402   1_554  A
C3705      C3710   1.389       .  A
C3705      H3711   1.084       .  S
C3706      C4257   1.402       .  A
C3706      C3707   1.396       .  A
C3707      C3708   1.390       .  A
C3707      H3712   1.084       .  S
C3708      C4261   1.401       .  A
C3708      H3713   1.084       .  S
C3709      C4260   1.401   1_554  A
C3709      C3710   1.395       .  A
C3710      H3714   1.084       .  S
C3715      C4268   1.408       .  A
C3715      C3720   1.403       .  A
C3715      H4273   1.081       .  S
C3716      C4267   1.408       .  A
C3716      C4269   1.404       .  A
C3717      C4268   1.404   1_556  A
C3717      C3718   1.399       .  A
C3717      H4274   1.083       .  S
C3718      C3719   1.408   1_556  A
C3718      H3723   1.083       .  S
C3719      C3720   1.405       .  A
C3720      H3724   1.083       .  S
H3721      C4267   1.081       .  S
H3722      C4269   1.083       .  S
C3725      C3726   1.397       .  A
C3725      C3730   1.393       .  A
C3725      H3731   1.084       .  S
C3726      C3727   1.402       .  A
C3727      C3728   1.396       .  A
C3727      H3732   1.083       .  S
C3728      C3729   1.402       .  A
C3728      H3733   1.083       .  S
C3729      C3730   1.405       .  A
C3730      H3734   1.082       .  S
C3735      C3736   1.399       .  A
C3735      C3740   1.397       .  A
C3735      H3741   1.083       .  S
C3736      C3737   1.403       .  A
C3737      C3738   1.404       .  A
C3737      H3742   1.083       .  S
C3738      C3739   1.404       .  A
C3738      H3743   1.077       .  S
C3739      C3740   1.409       .  A
C3740      H3744   1.084       .  S
C3745      C3746   1.408       .  A
C3745      C3750   1.408       .  A
C3745      H3751   1.076       .  S
C3746      C3747   1.401       .  A
C3747      C3748   1.399       .  A
C3747      H3752   1.084       .  S
C3748      C3749   1.407       .  A
C3748      H3753   1.079       .  S
C3749      C3750   1.405       .  A
C3750      H3754   1.083       .  S
C3755      C3756   1.408       .  A
C3755      C3760   1.407       .  A
C3755      H3761   1.078       .  S
C3756      C3757   1.400       .  A
C3757      C3758   1.403       .  A
C3757      H3762   1.083       .  S
C3758      C3759   1.414       .  A
C3758      H3763   1.083       .  S
C3759      C3760   1.402       .  A
C3760      H3764   1.078       .  S
C3765      C3766   1.408   1_556  A
C3765      C4322   1.408       .  A
C3765      H3771   1.083       .  S
C3767      C3768   1.401   1_545  A
C3767      H3772   1.082       .  S
C3768      C3769   1.405       .  A
C3768      H3773   1.083       .  S
C3770      C4317   1.408       .  A
C3770      H3774   1.083       .  S
C3775      C4328   1.410       .  A
C3775      C3780   1.405       .  A
C3775      H3781   1.083       .  S
C3776      C3922   1.485       .  S
C3776      C4327   1.410       .  A
C3776      C3777   1.404   1_556  A
C3777      C3778   1.396       .  A
C3777      H3782   1.083       .  S
C3778      C3779   1.406   1_554  A
C3778      H3783   1.083       .  S
C3779      C4332   1.404       .  A
C3780      C4331   1.404       .  A
C3780      H3784   1.083       .  S
C3785      C3786   1.402       .  A
C3785      C3790   1.403       .  A
C3785      H3791   1.083       .  S
C3787      C3788   1.397       .  A
C3787      H3792   1.078       .  S
C3788      C3789   1.400       .  A
C3788      H3793   1.083       .  S
C3790      H3794   1.083       .  S
C3795      C3796   1.401       .  A
C3795      C3800   1.401       .  A
C3795      H3801   1.082       .  S
C3797      C3798   1.401       .  A
C3797      H3802   1.083       .  S
C3798      C3799   1.398       .  A
C3798      H3803   1.084       .  S
C3800      H3804   1.082       .  S
C3805      C3806   1.399       .  A
C3805      C3810   1.392       .  A
C3805      H3811   1.079       .  S
C3806      C3807   1.403       .  A
C3807      C3808   1.399       .  A
C3807      H3812   1.083       .  S
C3808      C3809   1.403       .  A
C3808      H3813   1.082       .  S
C3809      C3810   1.401       .  A
C3810      H3814   1.084       .  S
C3815      C3816   1.402       .  A
C3815      C3820   1.397       .  A
C3815      H3821   1.083       .  S
C3816      C3817   1.400       .  A
C3817      C3818   1.391       .  A
C3817      H3822   1.077       .  S
C3818      C3819   1.399       .  A
C3818      H3823   1.085       .  S
C3819      C3820   1.400       .  A
C3820      H3824   1.083       .  S
C3825      C3830   1.408       .  A
C3825      H3831   1.083       .  S
C3827      H3832   1.083       .  S
C3828      C4381   1.406       .  A
C3828      H3833   1.083       .  S
C3829      C3960   1.491       .  S
C3829      C4380   1.406       .  A
C3830      H3834   1.083       .  S
C3835      C3836   1.401       .  A
C3835      C3840   1.391       .  A
C3835      H3841   1.083       .  S
C3836      C4389   1.397       .  A
C3837      C4388   1.397       .  A
C3837      C3838   1.380       .  A
C3837      H3842   1.084       .  S
C3838      C4391   1.399   1_556  A
C3838      H3843   1.082       .  S
C3839      C4390   1.399       .  A
C3839      C3840   1.402       .  A
C3840      H3844   1.083       .  S
C3845      C3846   1.406       .  A
C3845      C3850   1.400       .  A
C3845      H3851   1.083       .  S
C3846      C4399   1.405   1_556  A
C3847      C4398   1.405       .  A
C3847      C3848   1.396       .  A
C3847      H3852   1.079       .  S
C3848      C4401   1.401       .  A
C3848      H3853   1.084       .  S
C3849      C4400   1.401       .  A
C3849      C3850   1.405   1_554  A
C3850      H3854   1.083       .  S
C3855      C4408   1.407       .  A
C3855      C3860   1.400       .  A
C3855      H3861   1.083       .  S
C3856      C4407   1.407       .  A
C3856      C3857   1.404       .  A
C3857      C3858   1.392       .  A
C3857      H3862   1.083       .  S
C3858      C3859   1.401       .  A
C3858      H3863   1.084       .  S
C3859      C4412   1.402       .  A
C3860      C4411   1.402       .  A
C3860      H3864   1.083       .  S
O3865     Co3885   1.995       .  S
O3866     Co3886   2.007       .  S
O3867     Co3887   1.991       .  S
O3867      C3875   1.276       .  A
O3868     Co3888   1.904       .  S
O3868      C3876   1.273       .  A
O3869     Co3886   2.012       .  S
O3869      C3875   1.282       .  A
O3870     Co3885   2.096       .  S
O3870      C3876   1.299       .  A
O3871     Co3888   1.959       .  S
O3872     Co3887   1.971       .  S
O3872      C3873   1.268   1_556  A
C3873      C4408   1.472       .  S
C3874      C4388   1.442       .  S
C3875      C4338   1.476       .  S
C3876      C4351   1.474       .  S
O3877     Co3885   1.878       .  S
O3877      C3890   1.269       .  A
O3878     Co3886   1.981       .  S
O3878      C3891   1.271       .  A
O3879     Co3887   2.022       .  S
O3880     Co3888   2.154       .  S
O3880      C3893   1.319       .  A
O3881     Co3886   1.868       .  S
O3882     Co3885   1.982       .  S
O3882      C3892   1.265       .  A
O3883     Co3888   2.083       .  S
O3883      C3890   1.297       .  A
O3884     Co3887   1.987       .  S
O3884      C3891   1.271       .  A
Co3885     O3889   1.958       .  S
Co3888     O3889   2.002       .  S
C3890      C4368   1.456       .  S
C3891      C4361   1.455       .  S
C3892      C4398   1.482       .  S
C3893      C4378   1.490       .  S
O3894     Co3914   1.873       .  S
O3894      C3902   1.280       .  A
O3895     Co3915   1.955       .  S
O3895      C3903   1.251   1_556  A
O3896     Co3916   2.115       .  S
O3896      C3904   1.305       .  A
O3897     Co3917   2.015       .  S
O3897      C3905   1.276       .  A
O3898     Co3915   1.892       .  S
O3898      C3904   1.265       .  A
O3899     Co3914   2.000       .  S
O3899      C3905   1.274       .  A
O3900     Co3917   1.993       .  S
O3901     Co3916   2.145       .  S
C3902      C4318   1.498       .  S
C3903      C4391   1.450       .  S
C3904      C4298   1.481       .  S
C3905      C4308   1.485       .  S
O3906     Co3914   2.019       .  S
O3906      C3919   1.281       .  A
O3907     Co3915   2.066       .  S
O3907      C3920   1.294       .  A
O3908     Co3916   1.976       .  S
O3909     Co3917   1.978       .  S
O3910     Co3915   2.014       .  S
O3910      C3922   1.275       .  A
O3911     Co3914   2.024       .  S
O3911      C3921   1.261       .  A
O3912     Co3917   1.977       .  S
O3912      C3919   1.269       .  A
O3913     Co3916   1.899       .  S
O3913      C3920   1.275       .  A
Co3914     O3918   1.898       .  S
Co3917     O3918   2.027       .  S
C3919      C4288   1.470       .  S
C3920      C4278   1.455       .  S
C3921      C4401   1.473       .  S
O3923     Co3943   1.988       .  S
O3924     Co3944   1.996       .  S
O3924      C3932   1.266       .  A
O3925     Co3945   1.994       .  S
O3925      C3933   1.279       .  A
O3926     Co3946   1.992       .  S
O3926      C3934   1.263       .  A
O3927     Co3944   2.100       .  S
O3927      C3933   1.310       .  A
O3928     Co3943   1.995       .  S
O3928      C3934   1.262       .  A
O3929     Co3946   1.953       .  S
O3930     Co3945   1.976       .  S
O3930      C3931   1.270   1_556  A
C3931      C4411   1.463       .  S
C3932      C4258   1.440       .  S
C3933      C4221   1.500       .  S
C3934      C4228   1.475       .  S
O3935     Co3943   1.850       .  S
O3935      C3948   1.271       .  A
O3936     Co3944   1.993       .  S
O3936      C3949   1.263       .  A
O3937     Co3945   2.014       .  S
O3937      C3950   1.267       .  A
O3938     Co3946   1.996       .  S
O3939     Co3944   1.994       .  S
O3939      C3951   1.292   1_556  A
O3940     Co3943   2.003       .  S
O3941     Co3946   2.093       .  S
O3941      C3948   1.307       .  A
O3942     Co3945   1.966       .  S
O3942      C3949   1.257       .  A
Co3944     O3947   1.998       .  S
Co3945     O3947   2.050       .  S
C3948      C4248   1.451       .  S
C3949      C4241   1.475       .  S
C3950      C4268   1.486   1_556  S
C3951      C4321   1.496       .  S
O3952     Co3972   1.989       .  S
O3953     Co3973   1.972       .  S
O3954     Co3974   2.017       .  S
O3954      C3962   1.267       .  A
O3955     Co3975   2.089       .  S
O3955      C3963   1.306       .  A
O3956     Co3973   1.977       .  S
O3956      C3962   1.260       .  A
O3957     Co3972   2.008       .  S
O3957      C3963   1.281       .  A
O3958     Co3975   1.984       .  S
O3958      C3961   1.262       .  A
O3959     Co3974   2.007       .  S
O3959      C3960   1.278       .  A
C3961      C4261   1.441       .  S
C3962      C4198   1.484       .  S
C3963      C4208   1.498       .  S
O3964     Co3972   1.970       .  S
O3964      C3977   1.260       .  A
O3965     Co3973   2.111       .  S
O3965      C3978   1.312       .  A
O3966     Co3974   2.000       .  S
O3967     Co3975   1.977       .  S
O3967      C3980   1.288       .  A
O3968     Co3973   1.991       .  S
O3969     Co3972   2.018       .  S
O3969      C3979   1.264   1_655  A
O3970     Co3975   1.980       .  S
O3970      C3977   1.258       .  A
O3971     Co3974   1.879       .  S
O3971      C3978   1.276       .  A
Co3972     O3976   2.069       .  S
Co3975     O3976   1.999       .  S
C3977      C4188   1.473       .  S
C3978      C4178   1.474       .  S
C3980      C4331   1.482       .  S
O3981     Co4001   1.962       .  S
O3981      C3989   1.249       .  A
O3982     Co4002   1.991       .  S
O3982      C3990   1.257       .  A
O3983     Co4003   2.005       .  S
O3983      C3991   1.286       .  A
O3984     Co4004   1.966       .  S
O3984      C3992   1.245       .  A
O3985     Co4002   1.965       .  S
O3985      C3991   1.279       .  A
O3986     Co4001   1.990       .  S
O3986      C3992   1.252       .  A
O3987     Co4004   1.974       .  S
O3987      C3990   1.252       .  A
O3988     Co4003   2.027       .  S
O3988      C3989   1.266       .  A
C3989      C4291   1.471       .  S
C3990      C4281   1.463       .  S
C3991      C4148   1.485       .  S
C3992      C4158   1.455       .  S
O3993     Co4001   1.992       .  S
O3993      C4006   1.272       .  A
O3994     Co4002   2.062       .  S
O3994      C4007   1.273       .  A
O3995     Co4003   2.009       .  S
O3995      C4008   1.278       .  A
O3996     Co4004   1.965       .  S
O3996      C4009   1.256       .  A
O3997     Co4002   2.054       .  S
O3997      C4009   1.291       .  A
O3998     Co4001   1.969       .  S
O3998      C4008   1.267       .  A
O3999     Co4004   1.962       .  S
O3999      C4006   1.268       .  A
O4000     Co4003   1.970       .  S
O4000      C4007   1.236       .  A
Co4001     O4005   2.056       .  S
Co4002     O4005   2.067       .  S
Co4003     O4005   2.042       .  S
Co4004     O4005   2.084       .  S
C4007      C4168   1.470       .  S
C4008      C4371   1.454       .  S
C4009      C4358   1.464       .  S
O4010     Co4030   1.948       .  S
O4010      C4018   1.246       .  A
O4011     Co4031   1.931       .  S
O4011      C4019   1.270       .  A
O4012     Co4032   2.010       .  S
O4012      C4020   1.279       .  A
O4013     Co4033   2.019       .  S
O4013      C4021   1.267       .  A
O4014     Co4031   1.976       .  S
O4014      C4020   1.276       .  A
O4015     Co4030   1.941       .  S
O4015      C4021   1.252       .  A
O4016     Co4033   2.092       .  S
O4016      C4019   1.288       .  A
O4017     Co4032   2.081       .  S
O4017      C4018   1.278       .  A
C4018      C4311   1.495       .  S
C4019      C4301   1.489       .  S
C4020      C4118   1.485       .  S
C4021      C4161   1.450       .  S
O4022     Co4030   2.018       .  S
O4022      C4035   1.275       .  A
O4023      C4036   1.261       .  A
O4024     Co4032   1.950       .  S
O4024      C4037   1.251       .  A
O4025     Co4033   1.920       .  S
O4025      C4038   1.276       .  A
O4026     Co4031   2.070       .  S
O4026      C4038   1.286       .  A
O4027     Co4030   2.063       .  S
O4027      C4037   1.280       .  A
O4028     Co4033   1.979       .  S
O4028      C4035   1.273       .  A
O4029      C4036   1.260       .  A
Co4030     O4034   2.011       .  S
Co4031     O4034   2.008       .  S
Co4032     O4034   2.026       .  S
Co4033     O4034   2.025       .  S
C4035      C4128   1.492       .  S
C4036      C4171   1.460       .  S
C4037      C4348   1.487       .  S
C4038      C4341   1.465       .  S
O4039     Co4059   2.003       .  S
O4039      C4047   1.275       .  A
O4040     Co4060   2.023       .  S
O4040      C4048   1.248       .  A
O4041     Co4061   1.986       .  S
O4041      C4049   1.292       .  A
O4042      C4050   1.249       .  A
O4043     Co4060   1.986       .  S
O4043      C4049   1.291       .  A
O4044      C4050   1.260       .  A
O4045     Co4062   1.965       .  S
O4045      C4048   1.239       .  A
O4046     Co4061   1.992       .  S
O4046      C4047   1.273       .  A
C4047      C4191   1.480       .  S
C4048      C4181   1.478       .  S
C4049      C4151   1.484       .  S
C4050      C4098   1.449       .  S
O4051     Co4059   1.961       .  S
O4051      C4064   1.266       .  A
O4052     Co4060   1.998       .  S
O4052      C4065   1.255       .  A
O4053     Co4061   2.020       .  S
O4053      C4066   1.278       .  A
O4054     Co4062   2.047       .  S
O4054      C4067   1.285       .  A
O4055     Co4060   2.033       .  S
O4055      C4067   1.295       .  A
O4056     Co4059   1.957       .  S
O4056      C4066   1.261       .  A
O4057     Co4062   2.020       .  S
O4057      C4064   1.275       .  A
O4058     Co4061   2.022       .  S
O4058      C4065   1.245       .  A
Co4059     O4063   2.043       .  S
Co4060     O4063   2.016       .  S
Co4061     O4063   2.073       .  S
Co4062     O4063   2.025       .  S
C4064      C4121   1.487       .  S
C4065      C4108   1.459       .  S
C4066      C4251   1.452       .  S
C4067      C4238   1.489       .  S
O4068     Co4088   2.097       .  S
O4068      C4076   1.287       .  A
O4069     Co4089   2.087       .  S
O4069      C4077   1.280       .  A
O4070     Co4090   1.971       .  S
O4070      C4078   1.275       .  A
O4071     Co4091   1.953       .  S
O4071      C4079   1.254       .  A
O4072     Co4089   1.985       .  S
O4072      C4078   1.271       .  A
O4073     Co4088   1.998       .  S
O4073      C4079   1.264       .  A
O4074     Co4091   1.945       .  S
O4074      C4077   1.244       .  A
O4075     Co4090   1.935       .  S
O4075      C4076   1.272       .  A
C4076      C4211   1.488       .  S
C4077      C4201   1.494       .  S
C4078      C4141   1.457       .  S
C4079      C4101   1.448       .  S
O4080     Co4088   1.981       .  S
O4080      C4093   1.276       .  A
O4081     Co4089   1.969       .  S
O4081      C4094   1.259       .  A
O4082     Co4090   2.086       .  S
O4082      C4095   1.290       .  A
O4083     Co4091   2.087       .  S
O4083      C4096   1.283       .  A
O4084     Co4089   1.943       .  S
O4084      C4096   1.245       .  A
O4085     Co4088   1.918       .  S
O4085      C4095   1.275       .  A
O4086     Co4091   2.014       .  S
O4086      C4093   1.276       .  A
O4087     Co4090   2.010       .  S
O4087      C4094   1.265       .  A
Co4088     O4092   2.016       .  S
Co4089     O4092   2.017       .  S
Co4090     O4092   2.010       .  S
Co4091     O4092   2.011       .  S
C4093      C4131   1.491       .  S
C4094      C4111   1.459       .  S
C4095      C4231   1.475       .  S
C4096      C4218   1.497       .  S
C4097      C4098   1.394       .  A
C4097      C4102   1.392       .  A
C4097      H4103   1.084       .  S
C4098      C4099   1.403       .  A
C4099      C4100   1.385       .  A
C4099      H4104   1.083       .  S
C4100      C4101   1.392       .  A
C4100      H4105   1.084       .  S
C4101      C4102   1.407       .  A
C4102      H4106   1.082       .  S
C4107      C4108   1.400       .  A
C4107      C4112   1.401       .  A
C4107      H4113   1.083       .  S
C4108      C4109   1.403       .  A
C4109      C4110   1.390       .  A
C4109      H4114   1.084       .  S
C4110      C4111   1.397       .  A
C4110      H4115   1.083       .  S
C4111      C4112   1.406       .  A
C4112      H4116   1.084       .  S
C4117      C4118   1.406       .  A
C4117      H4123   1.083       .  S
C4119      C4120   1.396       .  A
C4119      H4124   1.083       .  S
C4120      H4125   1.083       .  S
C4122      H4126   1.083       .  S
C4127      C4128   1.405       .  A
C4127      C4132   1.404       .  A
C4127      H4133   1.083       .  S
C4128      C4129   1.411       .  A
C4129      C4130   1.404       .  A
C4129      H4134   1.083       .  S
C4130      C4131   1.405       .  A
C4130      H4135   1.083       .  S
C4131      C4132   1.410       .  A
C4132      H4136   1.083       .  S
C4137      C4138   1.407   1_565  A
C4137      C4142   1.389       .  A
C4137      H4143   1.083       .  S
C4138      C4139   1.405   1_545  A
C4139      C4140   1.397       .  A
C4140      C4141   1.404       .  A
C4140      H4145   1.084       .  S
C4141      C4142   1.398       .  A
C4142      H4146   1.083       .  S
C4147      C4148   1.407       .  A
C4147      C4152   1.407       .  A
C4147      H4153   1.082       .  S
C4148      C4149   1.406       .  A
C4149      C4150   1.394       .  A
C4149      H4154   1.083       .  S
C4150      C4151   1.403       .  A
C4150      H4155   1.083       .  S
C4151      C4152   1.408       .  A
C4152      H4156   1.083       .  S
C4157      C4158   1.397       .  A
C4157      C4162   1.385       .  A
C4157      H4163   1.084       .  S
C4158      C4159   1.403       .  A
C4159      C4160   1.397       .  A
C4159      H4164   1.080       .  S
C4160      C4161   1.400       .  A
C4160      H4165   1.084       .  S
C4161      C4162   1.402       .  A
C4162      H4166   1.083       .  S
C4167      C4168   1.403       .  A
C4167      C4172   1.392       .  A
C4167      H4173   1.083       .  S
C4168      C4169   1.406       .  A
C4169      C4170   1.401       .  A
C4169      H4174   1.083       .  S
C4170      C4171   1.401       .  A
C4170      H4175   1.083       .  S
C4171      C4172   1.400       .  A
C4172      H4176   1.083       .  S
C4177      C4182   1.401       .  A
C4177      H4183   1.082       .  S
C4178      C4179   1.400       .  A
C4179      C4180   1.401       .  A
C4179      H4184   1.084       .  S
C4180      H4185   1.083       .  S
C4181      C4182   1.401       .  A
C4182      H4186   1.082       .  S
C4187      C4192   1.390       .  A
C4187      H4193   1.084       .  S
C4188      C4189   1.405       .  A
C4189      C4190   1.409       .  A
C4189      H4194   1.083       .  S
C4190      H4195   1.075       .  S
C4191      C4192   1.404       .  A
C4192      H4196   1.084       .  S
C4197      C4198   1.409       .  A
C4197      C4202   1.402       .  A
C4197      H4203   1.077       .  S
C4198      C4199   1.398       .  A
C4199      C4200   1.405       .  A
C4199      H4204   1.083       .  S
C4200      C4201   1.418       .  A
C4200      H4205   1.083       .  S
C4201      C4202   1.398       .  A
C4202      H4206   1.079       .  S
C4207      C4208   1.410       .  A
C4207      C4212   1.406       .  A
C4207      H4213   1.075       .  S
C4208      C4209   1.404       .  A
C4209      C4210   1.408       .  A
C4209      H4214   1.083       .  S
C4210      C4211   1.408       .  A
C4210      H4215   1.078       .  S
C4211      C4212   1.401       .  A
C4212      H4216   1.082       .  S
C4217      C4218   1.414       .  A
C4217      C4222   1.405       .  A
C4217      H4223   1.083       .  S
C4218      C4219   1.400       .  A
C4219      C4220   1.407       .  A
C4219      H4224   1.080       .  S
C4220      C4221   1.410       .  A
C4220      H4225   1.072       .  S
C4221      C4222   1.405       .  A
C4222      H4226   1.083       .  S
C4227      C4228   1.401       .  A
C4227      C4232   1.401       .  A
C4227      H4233   1.083       .  S
C4228      C4229   1.405       .  A
C4229      C4230   1.401       .  A
C4229      H4234   1.081       .  S
C4230      C4231   1.402       .  A
C4230      H4235   1.083       .  S
C4231      C4232   1.408       .  A
C4232      H4236   1.083       .  S
C4237      C4238   1.411       .  A
C4237      C4242   1.400       .  A
C4237      H4243   1.081       .  S
C4238      C4239   1.403       .  A
C4239      C4240   1.404       .  A
C4239      H4244   1.083       .  S
C4240      C4241   1.409       .  A
C4240      H4245   1.083       .  S
C4241      C4242   1.399       .  A
C4242      H4246   1.084       .  S
C4247      C4248   1.403       .  A
C4247      C4252   1.388       .  A
C4247      H4253   1.085       .  S
C4248      C4249   1.400       .  A
C4249      C4250   1.397       .  A
C4249      H4254   1.080       .  S
C4250      C4251   1.401       .  A
C4250      H4255   1.084       .  S
C4251      C4252   1.395       .  A
C4252      H4256   1.080       .  S
C4257      C4262   1.389       .  A
C4257      H4263   1.084       .  S
C4258      C4259   1.396       .  A
C4259      C4260   1.390       .  A
C4259      H4264   1.084       .  S
C4260      H4265   1.084       .  S
C4261      C4262   1.395       .  A
C4262      H4266   1.084       .  S
C4267      C4272   1.403       .  A
C4269      C4270   1.399       .  A
C4270      C4271   1.408       .  A
C4270      H4275   1.083       .  S
C4271      C4272   1.405       .  A
C4272      H4276   1.083       .  S
C4277      C4278   1.397       .  A
C4277      C4282   1.393       .  A
C4277      H4283   1.084       .  S
C4278      C4279   1.402       .  A
C4279      C4280   1.396       .  A
C4279      H4284   1.083       .  S
C4280      C4281   1.402       .  A
C4280      H4285   1.083       .  S
C4281      C4282   1.405       .  A
C4282      H4286   1.082       .  S
C4287      C4288   1.399       .  A
C4287      C4292   1.397       .  A
C4287      H4293   1.083       .  S
C4288      C4289   1.403       .  A
C4289      C4290   1.404       .  A
C4289      H4294   1.083       .  S
C4290      C4291   1.404       .  A
C4290      H4295   1.077       .  S
C4291      C4292   1.409       .  A
C4292      H4296   1.084       .  S
C4297      C4298   1.408       .  A
C4297      C4302   1.408       .  A
C4297      H4303   1.076       .  S
C4298      C4299   1.401       .  A
C4299      C4300   1.399       .  A
C4299      H4304   1.084       .  S
C4300      C4301   1.407       .  A
C4300      H4305   1.079       .  S
C4301      C4302   1.405       .  A
C4302      H4306   1.083       .  S
C4307      C4308   1.408       .  A
C4307      C4312   1.407       .  A
C4307      H4313   1.078       .  S
C4308      C4309   1.400       .  A
C4309      C4310   1.403       .  A
C4309      H4314   1.083       .  S
C4310      C4311   1.414       .  A
C4310      H4315   1.083       .  S
C4311      C4312   1.402       .  A
C4312      H4316   1.078       .  S
C4317      C4318   1.408       .  A
C4317      H4323   1.083       .  S
C4319      C4320   1.401   1_545  A
C4319      H4324   1.082       .  S
C4320      C4321   1.405       .  A
C4320      H4325   1.083       .  S
C4322      H4326   1.083       .  S
C4327      C4332   1.405       .  A
C4327      H4333   1.083       .  S
C4328      C4329   1.404       .  A
C4329      C4330   1.396       .  A
C4329      H4334   1.083       .  S
C4330      C4331   1.406       .  A
C4330      H4335   1.083       .  S
C4332      H4336   1.083       .  S
C4337      C4338   1.402       .  A
C4337      C4342   1.403       .  A
C4337      H4343   1.083       .  S
C4339      C4340   1.397       .  A
C4339      H4344   1.078       .  S
C4340      C4341   1.400       .  A
C4340      H4345   1.083       .  S
C4342      H4346   1.083       .  S
C4347      C4348   1.401       .  A
C4347      C4352   1.401       .  A
C4347      H4353   1.082       .  S
C4349      C4350   1.401       .  A
C4349      H4354   1.083       .  S
C4350      C4351   1.398       .  A
C4350      H4355   1.084       .  S
C4352      H4356   1.082       .  S
C4357      C4358   1.399       .  A
C4357      C4362   1.392       .  A
C4357      H4363   1.079       .  S
C4358      C4359   1.403       .  A
C4359      C4360   1.399       .  A
C4359      H4364   1.083       .  S
C4360      C4361   1.403       .  A
C4360      H4365   1.082       .  S
C4361      C4362   1.401       .  A
C4362      H4366   1.084       .  S
C4367      C4368   1.402       .  A
C4367      C4372   1.397       .  A
C4367      H4373   1.083       .  S
C4368      C4369   1.400       .  A
C4369      C4370   1.391       .  A
C4369      H4374   1.077       .  S
C4370      C4371   1.399       .  A
C4370      H4375   1.085       .  S
C4371      C4372   1.400       .  A
C4372      H4376   1.083       .  S
C4377      C4382   1.408       .  A
C4377      H4383   1.083       .  S
C4379      H4384   1.083       .  S
C4380      H4385   1.083       .  S
C4382      H4386   1.083       .  S
C4387      C4388   1.401   1_554  A
C4387      C4392   1.391       .  A
C4387      H4393   1.083       .  S
C4389      C4390   1.380       .  A
C4389      H4394   1.084       .  S
C4390      H4395   1.082       .  S
C4391      C4392   1.402       .  A
C4392      H4396   1.083       .  S
C4397      C4398   1.406       .  A
C4397      C4402   1.400       .  A
C4397      H4403   1.083       .  S
C4399      C4400   1.396       .  A
C4399      H4404   1.079       .  S
C4400      H4405   1.084       .  S
C4401      C4402   1.405       .  A
C4402      H4406   1.083       .  S
C4407      C4412   1.400       .  A
C4407      H4413   1.083       .  S
C4408      C4409   1.404   1_554  A
C4409      C4410   1.392       .  A
C4409      H4414   1.083       .  S
C4410      C4411   1.401   1_556  A
C4410      H4415   1.084       .  S
C4412      H4416   1.083       .  S
