geometry optimzed in LAMMPS
_audit_creation_date              2020-11-30 
_audit_creation_method            'lammps2cif' 
_symmetry_space_group_name_H-M    'P1' 
_symmetry_Int_Tables_number       1 
_symmetry_cell_setting            triclinic 
loop_ 
_symmetry_equiv_pos_as_xyz 
  x,y,z 
_cell_length_a                    34.4192378 
_cell_length_b                    40.38467362823129 
_cell_length_c                    27.878263084003628 
_cell_angle_alpha                 89.49175916494094 
_cell_angle_beta                  92.57857781354068 
_cell_angle_gamma                 90.19851134118636 
loop_ 
_atom_site_label 
_atom_site_type_symbol 
_atom_site_fract_x 
_atom_site_fract_y 
_atom_site_fract_z 
_atom_site_charge 
C1          C  0.04810425  0.49151794  0.28983466     0.30600
C2          C  0.46836328  0.48815659  0.28682906     0.30600
C3          C  0.02906113  0.49253488  0.33844205    -0.05600
C4          C  0.02662279  0.01864080  0.26100891    -0.06400
C5          C  0.02986780  0.46003191  0.26650906    -0.06200
C6          C  0.48857895  0.49125681  0.33718147    -0.05600
C7          C  0.48619461  0.01783976  0.26133436    -0.06300
C8          C  0.48942752  0.45830688  0.26611196    -0.06200
C9          C  0.47782260  0.49416083  0.38398589    -0.31600
N10         N  0.01041213  0.99564264  0.41323960     0.14900
C11         C  0.04190569  0.49502892  0.38570695    -0.31600
H12         H  0.07184457  0.49698685  0.39890247     0.16800
C13         C  0.47284110  0.04586626  0.23798926    -0.30600
N14         N  0.50372179  0.06137708  0.21980755     0.13600
C15         C  0.03654488  0.04463663  0.23232478    -0.30600
C16         C  0.47826655  0.43112652  0.23976244    -0.30900
N17         N  0.51021211  0.41683314  0.22140936     0.14100
H18         H  0.44844679  0.42360531  0.23225089     0.16700
C19         C  0.04186314  0.43468558  0.23724205    -0.30900
H20         H  0.07093755  0.43152824  0.22498648     0.16700
H21         H  0.06516059  0.05067060  0.22026666     0.16700
H22         H  0.44851252  0.49519893  0.39632659     0.16800
H23         H  0.44320173  0.05450724  0.23403859     0.16700
C24         C  0.21888541  0.49736202  0.29401096     0.30600
C25         C  0.29854789  0.49727091  0.29291763     0.30600
C26         C  0.24089219  0.49746570  0.34304525    -0.05600
C27         C  0.23724308  0.46845494  0.26846256    -0.06400
C28         C  0.23729801  0.02721620  0.26762279    -0.06200
C29         C  0.28125697  0.49809586  0.34271570    -0.05600
C30         C  0.27748263  0.46811304  0.26907004    -0.06300
C31         C  0.27800242  0.02744952  0.26734593    -0.06200
C32         C  0.29484865  0.50134595  0.38972850    -0.31600
N33         N  0.26404184  0.50071344  0.41853213     0.14900
C34         C  0.23095267  0.49876623  0.39008039    -0.31600
H35         H  0.20164489  0.49862215  0.40261462     0.16800
C36         C  0.28847131  0.44191351  0.24208066    -0.30600
N37         N  0.25590339  0.42635609  0.22500601     0.13600
C38         C  0.22450941  0.44334797  0.23885027    -0.30600
C39         C  0.28810367  0.05349695  0.23743643    -0.30900
N40         N  0.25524251  0.06792728  0.21791101     0.14100
H41         H  0.31723512  0.06054170  0.22843634     0.16700
C42         C  0.22419642  0.05203816  0.23631191    -0.30900
H43         H  0.19416210  0.05744487  0.22653531     0.16700
H44         H  0.19472784  0.43821603  0.22720063     0.16700
H45         H  0.32473510  0.50537768  0.40181320     0.16800
H46         H  0.31787350  0.43566046  0.23353292     0.16700
C47         C  0.05476277  0.50994167  0.74048398     0.30600
C48         C  0.47463163  0.51000172  0.74168413     0.30600
C49         C  0.03237881  0.50684899  0.69212208    -0.05600
C50         C  0.03641659  0.48269959  0.77078258    -0.06400
C51         C  0.03639999  0.04151298  0.76181028    -0.06200
C52         C  0.99211079  0.50688467  0.69256121    -0.05600
C53         C  0.99611726  0.48282111  0.77172081    -0.06300
C54         C  0.99493063  0.04153456  0.76191529    -0.06200
C55         C  0.47804409  0.50647503  0.64546955    -0.31600
N56         N  0.00889843  0.50637496  0.61674774     0.14900
C57         C  0.04209750  0.50645991  0.64504525    -0.31600
H58         H  0.07130816  0.50686733  0.63217104     0.16800
C59         C  0.48597972  0.45732104  0.80183459    -0.30600
N60         N  0.01874769  0.44127430  0.81764983     0.13600
C61         C  0.04982614  0.45694017  0.79981092    -0.30600
C62         C  0.48514211  0.06135705  0.79959312    -0.30900
N63         N  0.01762527  0.07440347  0.82100662     0.14100
H64         H  0.45672135  0.06326091  0.81419332     0.16700
C65         C  0.04875952  0.06110716  0.80024836    -0.30900
H66         H  0.07822917  0.06336097  0.81460325     0.16700
H67         H  0.07983290  0.45056648  0.80851894     0.16700
H68         H  0.44778485  0.50613188  0.63319161     0.16800
H69         H  0.45691041  0.45084861  0.81195769     0.16700
C70         C  0.22457275  0.48745691  0.74440985     0.30600
C71         C  0.30422334  0.48711455  0.74654801     0.30600
C72         C  0.24334157  0.49577544  0.69729769    -0.05600
C73         C  0.24513136  0.01082580  0.78057368    -0.06400
C74         C  0.24351176  0.45386544  0.75979646    -0.06200
C75         C  0.28334207  0.49582625  0.69858845    -0.05600
C76         C  0.28540924  0.01073742  0.78158535    -0.06300
C77         C  0.28502732  0.45363235  0.76081630    -0.06200
C78         C  0.29438176  0.50247708  0.65286632    -0.31600
N79         N  0.26201001  0.00565077  0.62325404     0.14900
C80         C  0.23048905  0.50157517  0.65036741    -0.31600
H81         H  0.20060552  0.50051480  0.63678907     0.16800
C82         C  0.29798222  0.03247458  0.81672640    -0.30600
N83         N  0.26642855  0.04563529  0.83679202     0.13600
C84         C  0.23401346  0.03234510  0.81536716    -0.30600
C85         C  0.29622695  0.43153751  0.79723962    -0.30900
N86         N  0.26459150  0.41692553  0.81583974     0.14100
H87         H  0.32543776  0.42893236  0.81264712     0.16700
C88         C  0.23269263  0.43174927  0.79531160    -0.30900
H89         H  0.20398463  0.42976687  0.80936510     0.16700
H90         H  0.20459643  0.03890097  0.82334680     0.16700
H91         H  0.32407839  0.50354877  0.64171381     0.16800
H92         H  0.32782553  0.03879771  0.82666573     0.16700
O93         O  0.41982197  0.26422778  0.03517659    -0.80300
O94         O  0.09275295  0.28233006  0.01583357    -0.65000
O95         O  0.48514806  0.26207462  0.98702445    -1.11600
C96         C  0.01465721  0.17003467  0.09208735     1.06600
O97         O  0.09880727  0.23099551  0.99393305    -0.78200
O98         O  0.05436532  0.17696129  0.99098241    -0.65700
Ni99       Ni  0.44521296  0.29339281  0.99277290     1.34900
C100        C  0.02293105  0.17631020  0.96557805     0.85400
O101        O  0.03530707  0.31293039  0.95993199    -0.78700
O102        O  0.47078311  0.32422581  0.95220453    -0.89000
C103        C  0.11453528  0.25769619  0.00791886     0.84900
O104        O  0.46427901  0.31713261  0.04692239    -0.67200
O105        O  0.05047132  0.17717277  0.08703550    -0.86500
C106        C  0.99720465  0.32021350  0.06823194     0.85800
C107        C  0.00637193  0.33055091  0.94424254     1.07300
H108        H  0.03608916  0.24401497  0.07696132     0.39100
O109        O  0.03549348  0.23645518  0.04412441    -1.09100
O110        O  0.49481438  0.19567224  0.97312772    -0.65800
Ni111      Ni  0.48377295  0.22312975  0.02782292     1.26300
O112        O  0.02700294  0.30395400  0.05587901    -0.66000
O113        O  0.48605498  0.18484767  0.07009732    -0.78300
C114        C  0.40636193  0.23697673  0.01994432     0.85100
O115        O  0.42971544  0.21366466  0.01219399    -0.65500
Ni116      Ni  0.07501480  0.20451800  0.04086463     1.27400
Ni117      Ni  0.03744707  0.27481741  0.00226480     1.26100
H118        H  0.48387414  0.25511906  0.95393189     0.39700
O119        O  0.34886619  0.26262717  0.99513782    -0.80300
O120        O  0.18031345  0.27912528  0.01100016    -0.65000
O121        O  0.28556012  0.25602439  0.04563564    -1.11600
C122        C  0.25726964  0.16294922  0.94780279     1.06600
O123        O  0.16939505  0.22905290  0.03728514    -0.78200
O124        O  0.21623644  0.17716555  0.05368987    -0.65700
Ni125      Ni  0.32532234  0.28769063  0.04307951     1.34900
C126        C  0.24985569  0.17309991  0.07336187     0.85400
O127        O  0.23589795  0.30750440  0.06957989    -0.78700
O128        O  0.30013272  0.31290045  0.08964040    -0.89000
C129        C  0.15640027  0.25622699  0.02028810     0.84900
O130        O  0.30605347  0.31789465  0.99515990    -0.67200
O131        O  0.22204534  0.16846778  0.95829294    -0.86500
C132        C  0.27514152  0.31881320  0.96904555     0.85800
C133        C  0.26434269  0.32054130  0.09385765     1.07300
H134        H  0.23382814  0.23774966  0.95457195     0.39100
O135        O  0.23560398  0.23077507  0.98890226    -1.09100
O136        O  0.27961346  0.18847758  0.05872447    -0.65800
Ni137      Ni  0.28805668  0.21828874  0.00413517     1.26300
O138        O  0.24752517  0.29798051  0.97423289    -0.66000
O139        O  0.28634433  0.18086733  0.96172518    -0.78300
C140        C  0.36463337  0.23571383  0.00849469     0.85100
O141        O  0.34305519  0.21101468  0.01721682    -0.65500
Ni142      Ni  0.19608351  0.19932770  0.99741010     1.27400
Ni143      Ni  0.23420928  0.26965002  0.02811362     1.26100
H144        H  0.28555363  0.24805679  0.07878529     0.39700
C145        C  0.24431617  0.34154270  0.89275817    -0.11600
C146        C  0.27170479  0.34524879  0.93105798     0.05400
C147        C  0.29527279  0.37431897  0.93192767    -0.06900
C148        C  0.29201390  0.39756706  0.89426845    -0.07700
C149        C  0.26530244  0.39333900  0.85541623    -0.02200
C150        C  0.24086954  0.36506568  0.85540775     0.04600
N151        N  0.21317156  0.35890545  0.81701171     0.67100
H152        H  0.22573599  0.31982596  0.89111914     0.16000
H153        H  0.31036946  0.41941181  0.89573096     0.15700
N154        N  0.32197748  0.38155445  0.97117767     0.74800
O155        O  0.17787705  0.36477480  0.82368022    -0.38600
O156        O  0.22143421  0.33800042  0.78571952    -0.38600
O157        O  0.35778220  0.37714036  0.96585031    -0.39300
O158        O  0.31177042  0.40170622  0.00255014    -0.39400
C159        C  0.29014422  0.10105977  0.85623902    -0.11600
C160        C  0.26708579  0.07370372  0.86779591     0.05400
C161        C  0.24319890  0.07543214  0.90740616    -0.06900
C162        C  0.24192022  0.10459192  0.93347667    -0.07700
C163        C  0.26363986  0.13251147  0.92074262    -0.02200
C164        C  0.28867305  0.13041830  0.88221456     0.04600
N165        N  0.31084121  0.15811569  0.86671814     0.67100
H166        H  0.30819066  0.10008002  0.82542350     0.16000
H167        H  0.22330098  0.10549785  0.96381587     0.15700
N168        N  0.22047058  0.04788326  0.92237372     0.74800
O169        O  0.34680543  0.15877865  0.87761397    -0.38600
O170        O  0.29824562  0.17445947  0.83052174    -0.38600
O171        O  0.23283393  0.03100461  0.95814935    -0.39300
O172        O  0.18445833  0.04780101  0.91170127    -0.39400
C173        C  0.99821652  0.41697216  0.89225905    -0.11600
C174        C  0.01970368  0.41423005  0.85130045     0.05400
C175        C  0.03999679  0.38455600  0.84329722    -0.06900
C176        C  0.03685665  0.35781093  0.87526989    -0.07700
C177        C  0.01372633  0.36020467  0.91503929    -0.02200
C178        C  0.99528275  0.39053110  0.92418582     0.04600
N179        N  0.47422589  0.39545570  0.96635574     0.67100
H180        H  0.48344865  0.43995173  0.89939848     0.16000
H181        H  0.05118024  0.33467207  0.86783432     0.15700
N182        N  0.06212836  0.38034062  0.80180727     0.74800
O183        O  0.49168319  0.40889836  0.00192883    -0.38600
O184        O  0.43769421  0.39762258  0.96195372    -0.38600
O185        O  0.09865898  0.38240123  0.80646268    -0.39300
O186        O  0.04718599  0.36447156  0.76679129    -0.39400
C187        C  0.99340562  0.12663549  0.85259363    -0.11600
C188        C  0.01803670  0.09906657  0.85822498     0.05400
C189        C  0.04309523  0.09703537  0.89948302    -0.06900
C190        C  0.04380742  0.12255161  0.93306001    -0.07700
C191        C  0.01967199  0.15051889  0.92745063    -0.02200
C192        C  0.99386594  0.15219758  0.88651843     0.04600
N193        N  0.46907883  0.18000096  0.87730349     0.67100
H194        H  0.47418761  0.12868133  0.82084576     0.16000
H195        H  0.06336909  0.12003770  0.96437799     0.15700
N196        N  0.06671962  0.06864165  0.90952251     0.74800
O197        O  0.47962988  0.20197261  0.84812558    -0.38600
O198        O  0.43335945  0.17700732  0.88481158    -0.38600
O199        O  0.10302950  0.07135077  0.90624669    -0.39300
O200        O  0.05369145  0.04608746  0.93604112    -0.39400
C201        C  0.36267509  0.02441400  0.74150515    -0.11600
C202        C  0.34854353  0.49161277  0.74376042     0.05400
C203        C  0.37543491  0.46608060  0.73548116    -0.06900
C204        C  0.41509766  0.47364360  0.73308014    -0.07700
C205        C  0.42993355  0.50598442  0.73935965    -0.02200
C206        C  0.40234393  0.03199703  0.73912204     0.04600
N207        N  0.41226827  0.06566799  0.72898234     0.67100
H208        H  0.34229896  0.04482336  0.73975171     0.16000
H209        H  0.43472788  0.45360472  0.72567247     0.15700
N210        N  0.36354436  0.43307487  0.72402190     0.74800
O211        O  0.40609628  0.08719128  0.76028350    -0.38600
O212        O  0.41118583  0.07478761  0.68551763    -0.38600
O213        O  0.35840495  0.42586974  0.68023050    -0.39300
O214        O  0.37301178  0.41016117  0.75328410    -0.39400
C215        C  0.11365749  0.47350276  0.72732674    -0.11600
C216        C  0.09913450  0.50568512  0.73633613     0.05400
C217        C  0.12658786  0.03190210  0.73791214    -0.06900
C218        C  0.16627858  0.02474149  0.73927654    -0.07700
C219        C  0.18049959  0.49216578  0.73987416    -0.02600
C220        C  0.15383147  0.46671205  0.72831142     0.04600
N221        N  0.16703560  0.43529190  0.71222741     0.67100
H222        H  0.09355495  0.45346086  0.71895054     0.16000
H223        H  0.18646989  0.04535492  0.73860142     0.15700
N224        N  0.11590180  0.06582513  0.73127291     0.74800
O225        O  0.16139542  0.40940741  0.73659589    -0.38600
O226        O  0.18655307  0.43367752  0.67504137    -0.38600
O227        O  0.12727476  0.08626276  0.76296388    -0.39300
O228        O  0.11061981  0.07630687  0.68871385    -0.39400
C229        C  0.28200775  0.34601546  0.17048844    -0.11600
C230        C  0.25668739  0.34552828  0.12986901     0.05400
C231        C  0.22785268  0.37020266  0.12380920    -0.06900
C232        C  0.22755446  0.39636392  0.15616061    -0.07700
C233        C  0.25484921  0.39789361  0.19493635    -0.02200
C234        C  0.28122141  0.37162113  0.20308834     0.04600
N235        N  0.30656088  0.36966364  0.24497366     0.67100
H236        H  0.30312856  0.32640858  0.17684982     0.16000
H237        H  0.20672973  0.41615662  0.14996162     0.15700
N238        N  0.19971393  0.37010333  0.08456881     0.74800
O239        O  0.29580217  0.35254471  0.28008690    -0.38600
O240        O  0.34248909  0.37441821  0.24053583    -0.38600
O241        O  0.16536129  0.36133681  0.09261848    -0.39300
O242        O  0.20536437  0.38851452  0.04873027    -0.39400
C243        C  0.28155253  0.12027936  0.18498173    -0.11600
C244        C  0.25406603  0.09435754  0.18200319     0.05400
C245        C  0.22644483  0.09480001  0.14282870    -0.06900
C246        C  0.22619414  0.12083476  0.10933208    -0.07700
C247        C  0.25317545  0.14707006  0.11230835    -0.02200
C248        C  0.28160595  0.14629081  0.15071305     0.04600
N249        N  0.31010225  0.17183238  0.15679049     0.67100
H250        H  0.30303591  0.12055741  0.21458150     0.16000
H251        H  0.20491470  0.11980542  0.07949875     0.15700
N252        N  0.19986218  0.06809804  0.13398737     0.74800
O253        O  0.30382722  0.19489430  0.18566211    -0.38600
O254        O  0.34476248  0.16553341  0.14713481    -0.38600
O255        O  0.16433515  0.07268842  0.14110347    -0.39300
O256        O  0.20890568  0.04608809  0.10467005    -0.39400
C257        C  0.23546057  0.02063039  0.49181546    -0.11600
C258        C  0.26519963  0.50336233  0.47013189     0.05400
C259        C  0.29415432  0.48788691  0.50005945    -0.06900
C260        C  0.29218778  0.48931194  0.54969188    -0.07700
C261        C  0.26232717  0.50613928  0.57151855    -0.02200
C262        C  0.23353055  0.02206308  0.54178864     0.04600
N263        N  0.20257180  0.04045386  0.56089606     0.67100
H264        H  0.21341133  0.03331573  0.46972122     0.16000
H265        H  0.31390687  0.47593899  0.57136079     0.15700
N266        N  0.32481223  0.46885526  0.48179810     0.74800
O267        O  0.20619002  0.07148253  0.56371994    -0.38600
O268        O  0.16875789  0.02821522  0.55806540    -0.38600
O269        O  0.35867248  0.48105256  0.48422266    -0.39300
O270        O  0.32115610  0.43774114  0.48194660    -0.39400
C271        C  0.47544816  0.39136619  0.15255156    -0.11600
C272        C  0.00851089  0.39217201  0.18365554     0.05400
C273        C  0.03827318  0.36866356  0.17638706    -0.06900
C274        C  0.03413833  0.34572744  0.13862826    -0.07700
C275        C  0.00039895  0.34462444  0.10838310    -0.02200
C276        C  0.47046606  0.36784981  0.11657904     0.04600
N277        N  0.43421978  0.36838873  0.08943443     0.67100
H278        H  0.45257151  0.40937279  0.15583378     0.16000
H279        H  0.05732969  0.32817068  0.13370332     0.15700
N280        N  0.07202838  0.36620233  0.20781717     0.74800
O281        O  0.42832288  0.39146787  0.05927389    -0.38600
O282        O  0.40512058  0.35491464  0.10759304    -0.38600
O283        O  0.07305063  0.34352303  0.23928053    -0.39300
O284        O  0.10377107  0.37750173  0.19354491    -0.39400
C285        C  0.01013771  0.08305296  0.13989616    -0.11600
C286        C  0.50185979  0.08854549  0.18740153     0.05400
C287        C  0.49440517  0.12051456  0.20354576    -0.06900
C288        C  0.49681244  0.14740589  0.17155899    -0.07700
C289        C  0.00656048  0.14198287  0.12374749    -0.02200
C290        C  0.01267149  0.10938953  0.10795053     0.04600
N291        N  0.02291596  0.10241733  0.06009059     0.67100
H292        H  0.01574291  0.05809992  0.12803662     0.16000
H293        H  0.49260867  0.17235870  0.18427549     0.15700
N294        N  0.48634590  0.12552938  0.25280235     0.74800
O295        O  0.05801062  0.09597278  0.05289283    -0.38600
O296        O  0.99689879  0.09116449  0.03128447    -0.38600
O297        O  0.51367754  0.12246368  0.28425044    -0.39300
O298        O  0.45174618  0.12247225  0.26537788    -0.39400
C299        C  0.36054324  0.00236643  0.24866974    -0.11600
C300        C  0.34256877  0.49317074  0.29095275     0.05400
C301        C  0.36459685  0.47222577  0.32319108    -0.06900
C302        C  0.40491375  0.47078077  0.32065366    -0.07700
C303        C  0.42392164  0.48630880  0.28350378    -0.02200
C304        C  0.40030799  0.99728193  0.24331989     0.04600
N305        N  0.41348481  0.99651942  0.19533706     0.67100
H306        H  0.34300855  0.01004318  0.21744992     0.16000
H307        H  0.42120431  0.45528105  0.34618038     0.15700
N308        N  0.34711211  0.44800662  0.35301026     0.74800
O309        O  0.41045295  0.02239134  0.16972541    -0.38600
O310        O  0.41252103  0.96897960  0.17426779    -0.38600
O311        O  0.33833004  0.42042118  0.33453059    -0.39300
O312        O  0.35624208  0.44840986  0.39721151    -0.39400
C313        C  0.11371588  0.46522479  0.30045787    -0.11600
C314        C  0.09232137  0.49441542  0.29419547     0.05400
C315        C  0.11293296  0.02487451  0.30044051    -0.06900
C316        C  0.15351752  0.02515513  0.29885973    -0.07700
C317        C  0.17471792  0.49568439  0.29706258    -0.02200
C318        C  0.15419479  0.46561760  0.30479001     0.04600
N319        N  0.17276465  0.43644909  0.32404579     0.67100
H320        H  0.09889862  0.44190110  0.30586699     0.16000
H321        H  0.16865481  0.04856052  0.30290826     0.15700
N322        N  0.09476411  0.05452534  0.31602732     0.74800
O323        O  0.17060710  0.41019624  0.29982432    -0.38600
O324        O  0.17631195  0.43372349  0.36915555    -0.38600
O325        O  0.09227785  0.05844886  0.36064886    -0.39300
O326        O  0.09622440  0.08012940  0.28986354    -0.39400
C327        C  0.48417440  0.01991924  0.48506649    -0.11600
C328        C  0.01069859  0.49852979  0.46459721     0.05400
C329        C  0.03595893  0.47957032  0.49510163    -0.06900
C330        C  0.03422131  0.48238349  0.54474404    -0.07700
C331        C  0.00792020  0.50383080  0.56532457    -0.02200
C332        C  0.48248280  0.02278389  0.53490142     0.04600
N333        N  0.45601023  0.04610276  0.55333457     0.67100
H334        H  0.46493094  0.03489973  0.46205885     0.16000
H335        H  0.05338899  0.46723889  0.56761828     0.15700
N336        N  0.06225557  0.45605662  0.47684621     0.74800
O337        O  0.46570107  0.07626329  0.55420171    -0.38600
O338        O  0.42031386  0.03877468  0.55258093    -0.38600
O339        O  0.09795795  0.46332102  0.47718907    -0.39300
O340        O  0.05249359  0.42591106  0.47668568    -0.39400
C341        C  0.04810431  0.99151799  0.28983452     0.30600
C342        C  0.46836335  0.98815654  0.28682918     0.30600
C343        C  0.02906129  0.99253484  0.33844200    -0.05600
C344        C  0.02662283  0.51864073  0.26100891    -0.06400
C345        C  0.02986785  0.96003196  0.26650890    -0.06200
C346        C  0.48857912  0.99125671  0.33718156    -0.05600
C347        C  0.48619465  0.51783975  0.26133420    -0.06300
C348        C  0.48942759  0.95830688  0.26611192    -0.06200
C349        C  0.47782286  0.99416073  0.38398601    -0.31600
N350        N  0.01041184  0.49564266  0.41323958     0.14900
C351        C  0.04190592  0.99502894  0.38570686    -0.31600
H352        H  0.07184483  0.99698699  0.39890228     0.16800
C353        C  0.47284126  0.54586622  0.23798893    -0.30600
N354        N  0.50372205  0.56137698  0.21980733     0.13600
C355        C  0.03654506  0.54463651  0.23232478    -0.30600
C356        C  0.47826662  0.93112642  0.23976265    -0.30900
N357        N  0.51021215  0.91683301  0.22140956     0.14100
H358        H  0.44844685  0.92360513  0.23225129     0.16700
C359        C  0.04186317  0.93468553  0.23724206    -0.30900
H360        H  0.07093757  0.93152813  0.22498649     0.16700
H361        H  0.06516082  0.55067043  0.22026680     0.16700
H362        H  0.44851280  0.99519879  0.39632679     0.16800
H363        H  0.44320191  0.55450724  0.23403809     0.16700
C364        C  0.21888550  0.99736214  0.29401081     0.30600
C365        C  0.29854799  0.99727096  0.29291757     0.30600
C366        C  0.24089226  0.99746557  0.34304514    -0.05600
C367        C  0.23724315  0.96845516  0.26846213    -0.06400
C368        C  0.23729784  0.52721598  0.26762262    -0.06200
C369        C  0.28125704  0.99809569  0.34271562    -0.05600
C370        C  0.27748270  0.96811324  0.26906965    -0.06300
C371        C  0.27800224  0.52744934  0.26734572    -0.06200
C372        C  0.29484870  0.00134575  0.38972843    -0.31600
N373        N  0.26404188  0.00071327  0.41853204     0.14900
C374        C  0.23095272  0.99876612  0.39008027    -0.31600
H375        H  0.20164493  0.99862213  0.40261448     0.16800
C376        C  0.28847139  0.94191383  0.24208005    -0.30600
N377        N  0.25590348  0.92635646  0.22500529     0.13600
C378        C  0.22450949  0.94334828  0.23884967    -0.30600
C379        C  0.28810343  0.55349684  0.23743628    -0.30900
N380        N  0.25524223  0.56792720  0.21791097     0.14100
H381        H  0.31723487  0.56054167  0.22843625     0.16700
C382        C  0.22419619  0.55203802  0.23631190    -0.30900
H383        H  0.19416184  0.55744478  0.22653549     0.16700
H384        H  0.19472791  0.93821632  0.22720008     0.16700
H385        H  0.32473515  0.00537747  0.40181316     0.16800
H386        H  0.31787359  0.93566080  0.23353231     0.16700
C387        C  0.05476289  0.00994170  0.74048417     0.30600
C388        C  0.47463174  0.01000181  0.74168424     0.30600
C389        C  0.03237899  0.00684917  0.69212221    -0.05600
C390        C  0.03641667  0.98269954  0.77078258    -0.06400
C391        C  0.03639986  0.54151301  0.76180993    -0.06200
C392        C  0.99211097  0.00688485  0.69256127    -0.05600
C393        C  0.99611733  0.98282107  0.77172075    -0.06300
C394        C  0.99493050  0.54153457  0.76191499    -0.06200
C395        C  0.47804430  0.00647522  0.64546961    -0.31600
N396        N  0.00889872  0.00637516  0.61674781     0.14900
C397        C  0.04209775  0.00646013  0.64504541    -0.31600
H398        H  0.07130844  0.00686755  0.63217127     0.16800
C399        C  0.48597976  0.95732104  0.80183455    -0.30600
N400        N  0.01874770  0.94127426  0.81764982     0.13600
C401        C  0.04982618  0.95694012  0.79981095    -0.30600
C402        C  0.48514196  0.56135711  0.79959267    -0.30900
N403        N  0.01762515  0.57440358  0.82100617     0.14100
H404        H  0.45672121  0.56326095  0.81419291     0.16700
C405        C  0.04875940  0.56110726  0.80024793    -0.30900
H406        H  0.07822906  0.56336109  0.81460280     0.16700
H407        H  0.07983293  0.95056644  0.80851905     0.16700
H408        H  0.44778506  0.00613202  0.63319163     0.16800
H409        H  0.45691044  0.95084865  0.81195765     0.16700
C410        C  0.22457287  0.98745702  0.74440982     0.30600
C411        C  0.30422344  0.98711464  0.74654793     0.30600
C412        C  0.24334166  0.99577561  0.69729766    -0.05600
C413        C  0.24513123  0.51082575  0.78057365    -0.06400
C414        C  0.24351186  0.95386552  0.75979630    -0.06200
C415        C  0.28334216  0.99582640  0.69858839    -0.05600
C416        C  0.28540911  0.51073738  0.78158534    -0.06300
C417        C  0.28502742  0.95363242  0.76081611    -0.06200
C418        C  0.29438183  0.00247711  0.65286622    -0.31600
N419        N  0.26200995  0.50565078  0.62325414     0.14900
C420        C  0.23048913  0.00157524  0.65036736    -0.31600
H421        H  0.20060559  0.00051482  0.63678904     0.16800
C422        C  0.29798206  0.53247456  0.81672636    -0.30600
N423        N  0.26642839  0.54563528  0.83679195     0.13600
C424        C  0.23401330  0.53234507  0.81536709    -0.30600
C425        C  0.29622703  0.93153749  0.79723932    -0.30900
N426        N  0.26459158  0.91692548  0.81583938     0.14100
H427        H  0.32543785  0.92893231  0.81264679     0.16700
C428        C  0.23269271  0.93174927  0.79531134    -0.30900
H429        H  0.20398472  0.92976686  0.80936485     0.16700
H430        H  0.20459626  0.53890093  0.82334672     0.16700
H431        H  0.32407846  0.00354870  0.64171367     0.16800
H432        H  0.32782537  0.53879770  0.82666570     0.16700
O433        O  0.41982205  0.76422768  0.03517673    -0.80300
O434        O  0.09275299  0.78233015  0.01583355    -0.65000
O435        O  0.48514808  0.76207457  0.98702445    -1.11600
C436        C  0.01465757  0.67003445  0.09208686     1.06600
O437        O  0.09880737  0.73099570  0.99393263    -0.78200
O438        O  0.05436549  0.67696146  0.99098166    -0.65700
Ni439      Ni  0.44521295  0.79339274  0.99277298     1.34900
C440        C  0.02293108  0.67631028  0.96557761     0.85400
O441        O  0.03530701  0.81293049  0.95993215    -0.78700
O442        O  0.47078300  0.82422576  0.95220455    -0.89000
C443        C  0.11453535  0.75769633  0.00791864     0.84900
O444        O  0.46427906  0.81713255  0.04692244    -0.67200
O445        O  0.05047166  0.67717250  0.08703473    -0.86500
C446        C  0.99720469  0.82021338  0.06823212     0.85800
C447        C  0.00637184  0.83055094  0.94424267     1.07300
H448        H  0.03608942  0.74401449  0.07695988     0.39100
O449        O  0.03549366  0.73645513  0.04412443    -1.09100
O450        O  0.49481429  0.69567216  0.97312756    -0.65800
Ni451      Ni  0.48377307  0.72312966  0.02782285     1.26300
O452        O  0.02700298  0.80395388  0.05587917    -0.66000
O453        O  0.48605522  0.68484757  0.07009720    -0.78300
C454        C  0.40636201  0.73697662  0.01994446     0.85100
O455        O  0.42971553  0.71366457  0.01219410    -0.65500
Ni456      Ni  0.07501502  0.70451797  0.04086404     1.27400
Ni457      Ni  0.03744712  0.77481743  0.00226478     1.26100
H458        H  0.48387415  0.75511904  0.95393187     0.39700
O459        O  0.34886631  0.76262705  0.99513772    -0.80300
O460        O  0.18031354  0.77912537  0.01099988    -0.65000
O461        O  0.28556019  0.75602442  0.04563556    -1.11600
C462        C  0.25726963  0.66294922  0.94780271     1.06600
O463        O  0.16939508  0.72905302  0.03728497    -0.78200
O464        O  0.21623636  0.67716560  0.05368976    -0.65700
Ni465      Ni  0.32532244  0.78769065  0.04307923     1.34900
C466        C  0.24985558  0.67309995  0.07336186     0.85400
O467        O  0.23589802  0.80750452  0.06957955    -0.78700
O468        O  0.30013280  0.81290062  0.08963995    -0.89000
C469        C  0.15640033  0.75622711  0.02028790     0.84900
O470        O  0.30605363  0.81789454  0.99515943    -0.67200
O471        O  0.22204533  0.66846784  0.95829281    -0.86500
C472        C  0.27514166  0.81881311  0.96904513     0.85800
C473        C  0.26434277  0.82054148  0.09385721     1.07300
H474        H  0.23382834  0.73774927  0.95457358     0.39100
O475        O  0.23560404  0.73077514  0.98890186    -1.09100
O476        O  0.27961340  0.68847760  0.05872451    -0.65800
Ni477      Ni  0.28805672  0.71828870  0.00413516     1.26300
O478        O  0.24752525  0.79798050  0.97423259    -0.66000
O479        O  0.28634434  0.68086727  0.96172519    -0.78300
C480        C  0.36463346  0.73571374  0.00849474     0.85100
O481        O  0.34305523  0.71101461  0.01721687    -0.65500
Ni482      Ni  0.19608351  0.69932777  0.99740998     1.27400
Ni483      Ni  0.23420936  0.76965009  0.02811344     1.26100
H484        H  0.28555369  0.74805699  0.07878474     0.39700
C485        C  0.24431622  0.84154263  0.89275779    -0.11600
C486        C  0.27170493  0.84524868  0.93105753     0.05400
C487        C  0.29527300  0.87431881  0.93192715    -0.06900
C488        C  0.29201405  0.89756693  0.89426799    -0.07700
C489        C  0.26530253  0.89333892  0.85541584    -0.02200
C490        C  0.24086959  0.86506563  0.85540738     0.04600
N491        N  0.21317161  0.85890539  0.81701133     0.67100
H492        H  0.22573601  0.81982591  0.89111880     0.16000
H493        H  0.31036966  0.91941166  0.89573048     0.15700
N494        N  0.32197792  0.88155416  0.97117697     0.74800
O495        O  0.17787708  0.86477462  0.82367989    -0.38600
O496        O  0.22143433  0.83800046  0.78571904    -0.38600
O497        O  0.35778258  0.87713996  0.96584930    -0.39300
O498        O  0.31177113  0.90170589  0.00254963    -0.39400
C499        C  0.29014403  0.60105978  0.85623885    -0.11600
C500        C  0.26708563  0.57370372  0.86779580     0.05400
C501        C  0.24319879  0.57543216  0.90740611    -0.06900
C502        C  0.24192018  0.60459194  0.93347663    -0.07700
C503        C  0.26363980  0.63251148  0.92074252    -0.02200
C504        C  0.28867289  0.63041832  0.88221436     0.04600
N505        N  0.31084089  0.65811574  0.86671773     0.67100
H506        H  0.30819040  0.60008002  0.82542326     0.16000
H507        H  0.22330100  0.60549787  0.96381588     0.15700
N508        N  0.22047046  0.54788330  0.92237371     0.74800
O509        O  0.34680515  0.65877878  0.87761327    -0.38600
O510        O  0.29824507  0.67445946  0.83052139    -0.38600
O511        O  0.23283384  0.53100466  0.95814934    -0.39300
O512        O  0.18445820  0.54780109  0.91170136    -0.39400
C513        C  0.99821641  0.91697217  0.89225903    -0.11600
C514        C  0.01970364  0.91423003  0.85130049     0.05400
C515        C  0.03999675  0.88455598  0.84329733    -0.06900
C516        C  0.03685658  0.85781093  0.87527003    -0.07700
C517        C  0.01372621  0.86020468  0.91503938    -0.02200
C518        C  0.99528259  0.89053112  0.92418582     0.04600
N519        N  0.47422561  0.89545571  0.96635562     0.67100
H520        H  0.48344850  0.93995173  0.89939837     0.16000
H521        H  0.05118019  0.83467207  0.86783451     0.15700
N522        N  0.06212837  0.88034057  0.80180743     0.74800
O523        O  0.49168290  0.90889824  0.00192883    -0.38600
O524        O  0.43769396  0.89762275  0.96195348    -0.38600
O525        O  0.09865899  0.88240126  0.80646288    -0.39300
O526        O  0.04718608  0.86447144  0.76679149    -0.39400
C527        C  0.99340548  0.62663558  0.85259323    -0.11600
C528        C  0.01803658  0.59906667  0.85822455     0.05400
C529        C  0.04309510  0.59703545  0.89948259    -0.06900
C530        C  0.04380729  0.62255167  0.93305960    -0.07700
C531        C  0.01967191  0.65051897  0.92745022    -0.02200
C532        C  0.99386581  0.65219766  0.88651805     0.04600
N533        N  0.46907859  0.68000102  0.87730313     0.67100
H534        H  0.47418736  0.62868140  0.82084534     0.16000
H535        H  0.06336893  0.62003772  0.96437762     0.15700
N536        N  0.06671950  0.56864173  0.90952204     0.74800
O537        O  0.47962958  0.70197263  0.84812512    -0.38600
O538        O  0.43335924  0.67700738  0.88481134    -0.38600
O539        O  0.10302938  0.57135087  0.90624626    -0.39300
O540        O  0.05369133  0.54608749  0.93604057    -0.39400
C541        C  0.36267498  0.52441390  0.74150513    -0.11600
C542        C  0.34854364  0.99161287  0.74376034     0.05400
C543        C  0.37543501  0.96608071  0.73548100    -0.06900
C544        C  0.41509777  0.97364371  0.73308007    -0.07700
C545        C  0.42993366  0.00598451  0.73935971    -0.02200
C546        C  0.40234381  0.53199693  0.73912193     0.04600
N547        N  0.41226812  0.56566788  0.72898209     0.67100
H548        H  0.34229884  0.54482326  0.73975164     0.16000
H549        H  0.43472798  0.95360484  0.72567234     0.15700
N550        N  0.36354445  0.93307502  0.72402154     0.74800
O551        O  0.40609602  0.58719124  0.76028311    -0.38600
O552        O  0.41118579  0.57478739  0.68551733    -0.38600
O553        O  0.35840517  0.92587000  0.68023009    -0.39300
O554        O  0.37301177  0.91016125  0.75328366    -0.39400
C555        C  0.11365762  0.97350284  0.72732684    -0.11600
C556        C  0.09913462  0.00568517  0.73633636     0.05400
C557        C  0.12658776  0.53190204  0.73791182    -0.06900
C558        C  0.16627848  0.52474140  0.73927634    -0.07700
C559        C  0.18049970  0.99216587  0.73987420    -0.02600
C560        C  0.15383160  0.96671215  0.72831142     0.04600
N561        N  0.16703573  0.93529201  0.71222732     0.67100
H562        H  0.09355508  0.95346093  0.71895059     0.16000
H563        H  0.18646980  0.54535482  0.73860119     0.15700
N564        N  0.11590172  0.56582506  0.73127241     0.74800
O565        O  0.16139542  0.90940748  0.73659564    -0.38600
O566        O  0.18655330  0.93367769  0.67504136    -0.38600
O567        O  0.12727465  0.58626275  0.76296332    -0.39300
O568        O  0.11061981  0.57630671  0.68871330    -0.39400
C569        C  0.28200786  0.84601577  0.17048787    -0.11600
C570        C  0.25668750  0.84552854  0.12986845     0.05400
C571        C  0.22785282  0.87020295  0.12380853    -0.06900
C572        C  0.22755460  0.89636425  0.15615988    -0.07700
C573        C  0.25484933  0.89789398  0.19493563    -0.02200
C574        C  0.28122154  0.87162151  0.20308768     0.04600
N575        N  0.30656108  0.86966409  0.24497295     0.67100
H576        H  0.30312866  0.82640890  0.17684932     0.16000
H577        H  0.20672988  0.91615696  0.14996084     0.15700
N578        N  0.19971411  0.87010360  0.08456810     0.74800
O579        O  0.29580246  0.85254519  0.28008626    -0.38600
O580        O  0.34248926  0.87441873  0.24053503    -0.38600
O581        O  0.16536144  0.86133717  0.09261775    -0.39300
O582        O  0.20536465  0.88851470  0.04872949    -0.39400
C583        C  0.28155229  0.62027931  0.18498175    -0.11600
C584        C  0.25406570  0.59435755  0.18200325     0.05400
C585        C  0.22644439  0.59480016  0.14282888    -0.06900
C586        C  0.22619379  0.62083491  0.10933223    -0.07700
C587        C  0.25317523  0.64707012  0.11230841    -0.02200
C588        C  0.28160574  0.64629080  0.15071311     0.04600
N589        N  0.31010204  0.67183236  0.15679065     0.67100
H590        H  0.30303571  0.62055730  0.21458148     0.16000
H591        H  0.20491428  0.61980564  0.07949898     0.15700
N592        N  0.19986148  0.56809836  0.13398771     0.74800
O593        O  0.30382695  0.69489428  0.18566224    -0.38600
O594        O  0.34476230  0.66553336  0.14713514    -0.38600
O595        O  0.16433452  0.57268897  0.14110399    -0.39300
O596        O  0.20890469  0.54608830  0.10467041    -0.39400
C597        C  0.23546047  0.52063044  0.49181559    -0.11600
C598        C  0.26519968  0.00336220  0.47013179     0.05400
C599        C  0.29415431  0.98788672  0.50005936    -0.06900
C600        C  0.29218779  0.98931178  0.54969180    -0.07700
C601        C  0.26232721  0.00613919  0.57151845    -0.02200
C602        C  0.23353046  0.52206312  0.54178877     0.04600
N603        N  0.20257172  0.54045389  0.56089620     0.67100
H604        H  0.21341119  0.53331575  0.46972136     0.16000
H605        H  0.31390683  0.97593880  0.57136072     0.15700
N606        N  0.32481211  0.96885493  0.48179800     0.74800
O607        O  0.20619001  0.57148254  0.56372032    -0.38600
O608        O  0.16875778  0.52821532  0.55806536    -0.38600
O609        O  0.35867246  0.98105203  0.48422269    -0.39300
O610        O  0.32115572  0.93774084  0.48194628    -0.39400
C611        C  0.47544810  0.89136591  0.15255194    -0.11600
C612        C  0.00851086  0.89217180  0.18365584     0.05400
C613        C  0.03827317  0.86866337  0.17638734    -0.06900
C614        C  0.03413834  0.84572726  0.13862852    -0.07700
C615        C  0.00039896  0.84462427  0.10838334    -0.02200
C616        C  0.47046603  0.86784957  0.11657936     0.04600
N617        N  0.43421976  0.86838852  0.08943472     0.67100
H618        H  0.45257142  0.90937247  0.15583421     0.16000
H619        H  0.05732971  0.82817052  0.13370357     0.15700
N620        N  0.07202837  0.86620216  0.20781745     0.74800
O621        O  0.42832294  0.89146762  0.05927410    -0.38600
O622        O  0.40512052  0.85491449  0.10759332    -0.38600
O623        O  0.07305061  0.84352287  0.23928084    -0.39300
O624        O  0.10377105  0.87750156  0.19354520    -0.39400
C625        C  0.01013899  0.58305279  0.13989609    -0.11600
C626        C  0.50186021  0.58854533  0.18740118     0.05400
C627        C  0.49440481  0.62051435  0.20354503    -0.06900
C628        C  0.49681205  0.64740562  0.17155816    -0.07700
C629        C  0.00656096  0.64198261  0.12374699    -0.02200
C630        C  0.01267283  0.60938931  0.10795038     0.04600
N631        N  0.02291803  0.60241711  0.06009072     0.67100
H632        H  0.01574477  0.55809979  0.12803681     0.16000
H633        H  0.49260765  0.67235841  0.18427440     0.15700
N634        N  0.48634476  0.62552921  0.25280137     0.74800
O635        O  0.05801289  0.59597284  0.05289369    -0.38600
O636        O  0.99690135  0.59116404  0.03128412    -0.38600
O637        O  0.51367591  0.62246352  0.28425012    -0.39300
O638        O  0.45174479  0.62247218  0.26537605    -0.39400
C639        C  0.36054310  0.50236643  0.24866973    -0.11600
C640        C  0.34256886  0.99317075  0.29095274     0.05400
C641        C  0.36459688  0.97222574  0.32319108    -0.06900
C642        C  0.40491380  0.97078077  0.32065379    -0.07700
C643        C  0.42392173  0.98630875  0.28350391    -0.02200
C644        C  0.40030786  0.49728200  0.24331982     0.04600
N645        N  0.41348462  0.49651953  0.19533696     0.67100
H646        H  0.34300837  0.51004315  0.21744992     0.16000
H647        H  0.42120432  0.95528105  0.34618055     0.15700
N648        N  0.34711206  0.94800644  0.35300993     0.74800
O649        O  0.41045268  0.52239145  0.16972534    -0.38600
O650        O  0.41252082  0.46897971  0.17426767    -0.38600
O651        O  0.33833000  0.92042111  0.33452993    -0.39300
O652        O  0.35624187  0.94840946  0.39721123    -0.39400
C653        C  0.11371598  0.96522491  0.30045767    -0.11600
C654        C  0.09232144  0.99441552  0.29419521     0.05400
C655        C  0.11293291  0.52487440  0.30044086    -0.06900
C656        C  0.15351746  0.52515500  0.29886008    -0.07700
C657        C  0.17471800  0.99568453  0.29706235    -0.02200
C658        C  0.15419489  0.96561774  0.30478980     0.04600
N659        N  0.17276478  0.93644925  0.32404558     0.67100
H660        H  0.09889874  0.94190121  0.30586683     0.16000
H661        H  0.16865477  0.54856038  0.30290864     0.15700
N662        N  0.09476406  0.55452521  0.31602773     0.74800
O663        O  0.17060746  0.91019645  0.29982398    -0.38600
O664        O  0.17631187  0.93372356  0.36915534    -0.38600
O665        O  0.09227786  0.55844871  0.36064928    -0.39300
O666        O  0.09622430  0.58012928  0.28986397    -0.39400
C667        C  0.48417421  0.51991927  0.48506646    -0.11600
C668        C  0.01069896  0.99852988  0.46459724     0.05400
C669        C  0.03595956  0.97957068  0.49510171    -0.06900
C670        C  0.03422190  0.98238386  0.54474413    -0.07700
C671        C  0.00792057  0.00383100  0.56532463    -0.02200
C672        C  0.48248263  0.52278387  0.53490139     0.04600
N673        N  0.45601017  0.54610282  0.55333462     0.67100
H674        H  0.46493089  0.53489990  0.46205885     0.16000
H675        H  0.05338975  0.96723943  0.56761838     0.15700
N676        N  0.06225659  0.95605728  0.47684635     0.74800
O677        O  0.46570112  0.57626333  0.55420170    -0.38600
O678        O  0.42031378  0.53877483  0.55258107    -0.38600
O679        O  0.09795888  0.96332206  0.47718941    -0.39300
O680        O  0.05249506  0.92591161  0.47668572    -0.39400
C681        C  0.54810426  0.49151796  0.28983471     0.30600
C682        C  0.96836328  0.48815657  0.28682900     0.30600
C683        C  0.52906114  0.49253488  0.33844210    -0.05600
C684        C  0.52662278  0.01864083  0.26100898    -0.06400
C685        C  0.52986780  0.46003194  0.26650910    -0.06200
C686        C  0.98857895  0.49125681  0.33718142    -0.05600
C687        C  0.98619462  0.01783974  0.26133428    -0.06300
C688        C  0.98942751  0.45830685  0.26611192    -0.06200
C689        C  0.97782259  0.49416084  0.38398583    -0.31600
N690        N  0.51041216  0.99564265  0.41323967     0.14900
C691        C  0.54190570  0.49502890  0.38570700    -0.31600
H692        H  0.57184458  0.49698684  0.39890252     0.16800
C693        C  0.97284112  0.04586624  0.23798918    -0.30600
N694        N  0.00372182  0.06137706  0.21980749     0.13600
C695        C  0.53654486  0.04463666  0.23232484    -0.30600
C696        C  0.97826655  0.43112651  0.23976238    -0.30900
N697        N  0.01021210  0.41683313  0.22140928     0.14100
H698        H  0.94844678  0.42360530  0.23225082     0.16700
C699        C  0.54186315  0.43468560  0.23724211    -0.30900
H700        H  0.57093756  0.43152825  0.22498654     0.16700
H701        H  0.56516056  0.05067063  0.22026669     0.16700
H702        H  0.94851251  0.49519893  0.39632654     0.16800
H703        H  0.94320175  0.05450723  0.23403850     0.16700
C704        C  0.71888541  0.49736201  0.29401100     0.30600
C705        C  0.79854790  0.49727089  0.29291766     0.30600
C706        C  0.74089221  0.49746570  0.34304529    -0.05600
C707        C  0.73724309  0.46845491  0.26846263    -0.06400
C708        C  0.73729799  0.02721617  0.26762277    -0.06200
C709        C  0.78125699  0.49809586  0.34271573    -0.05600
C710        C  0.77748264  0.46811302  0.26907011    -0.06300
C711        C  0.77800240  0.02744950  0.26734591    -0.06200
C712        C  0.79484867  0.50134595  0.38972853    -0.31600
N713        N  0.76404186  0.50071345  0.41853217     0.14900
C714        C  0.73095269  0.49876625  0.39008043    -0.31600
H715        H  0.70164491  0.49862217  0.40261467     0.16800
C716        C  0.78847132  0.44191348  0.24208074    -0.30600
N717        N  0.75590341  0.42635605  0.22500611     0.13600
C718        C  0.72450943  0.44334793  0.23885036    -0.30600
C719        C  0.78810365  0.05349692  0.23743639    -0.30900
N720        N  0.75524248  0.06792725  0.21791098     0.14100
H721        H  0.81723510  0.06054168  0.22843631     0.16700
C722        C  0.72419640  0.05203813  0.23631189    -0.30900
H723        H  0.69416207  0.05744484  0.22653529     0.16700
H724        H  0.69472786  0.43821599  0.22720072     0.16700
H725        H  0.82473512  0.50537766  0.40181324     0.16800
H726        H  0.81787352  0.43566044  0.23353299     0.16700
C727        C  0.55476276  0.50994166  0.74048405     0.30600
C728        C  0.97463163  0.51000174  0.74168411     0.30600
C729        C  0.53237883  0.50684898  0.69212214    -0.05600
C730        C  0.53641658  0.48269957  0.77078264    -0.06400
C731        C  0.53639998  0.04151299  0.76181038    -0.06200
C732        C  0.49211081  0.50688466  0.69256125    -0.05600
C733        C  0.49611725  0.48282108  0.77172084    -0.06300
C734        C  0.49493062  0.04153457  0.76191538    -0.06200
C735        C  0.97804406  0.50647501  0.64546953    -0.31600
N736        N  0.50889847  0.50637500  0.61674778     0.14900
C737        C  0.54209754  0.50645994  0.64504531    -0.31600
H738        H  0.57130821  0.50686738  0.63217111     0.16800
C739        C  0.98597974  0.45732106  0.80183454    -0.30600
N740        N  0.51874767  0.44127429  0.81764991     0.13600
C741        C  0.54982613  0.45694016  0.79981100    -0.30600
C742        C  0.98514212  0.06135704  0.79959302    -0.30900
N743        N  0.51762526  0.07440346  0.82100674     0.14100
H744        H  0.95672137  0.06326088  0.81419325     0.16700
C745        C  0.54875951  0.06110715  0.80024848    -0.30900
H746        H  0.57822916  0.06336093  0.81460339     0.16700
H747        H  0.57983289  0.45056648  0.80851904     0.16700
H748        H  0.94778481  0.50613186  0.63319161     0.16800
H749        H  0.95691043  0.45084863  0.81195765     0.16700
C750        C  0.72457276  0.48745692  0.74440989     0.30600
C751        C  0.80422334  0.48711456  0.74654804     0.30600
C752        C  0.74334156  0.49577546  0.69729772    -0.05600
C753        C  0.74513135  0.01082581  0.78057369    -0.06400
C754        C  0.74351176  0.45386544  0.75979648    -0.06200
C755        C  0.78334207  0.49582626  0.69858848    -0.05600
C756        C  0.78540923  0.01073743  0.78158536    -0.06300
C757        C  0.78502733  0.45363236  0.76081632    -0.06200
C758        C  0.79438176  0.50247710  0.65286635    -0.31600
N759        N  0.76201000  0.00565077  0.62325405     0.14900
C760        C  0.73048905  0.50157520  0.65036744    -0.31600
H761        H  0.70060552  0.50051483  0.63678911     0.16800
C762        C  0.79798221  0.03247458  0.81672641    -0.30600
N763        N  0.76642854  0.04563530  0.83679202     0.13600
C764        C  0.73401345  0.03234511  0.81536716    -0.30600
C765        C  0.79622695  0.43153752  0.79723964    -0.30900
N766        N  0.76459151  0.41692554  0.81583976     0.14100
H767        H  0.82543777  0.42893237  0.81264713     0.16700
C768        C  0.73269263  0.43174928  0.79531163    -0.30900
H769        H  0.70398464  0.42976689  0.80936513     0.16700
H770        H  0.70459642  0.03890098  0.82334679     0.16700
H771        H  0.82407839  0.50354878  0.64171384     0.16800
H772        H  0.82782552  0.03879771  0.82666573     0.16700
O773        O  0.91982199  0.26422782  0.03517650    -0.80300
O774        O  0.59275294  0.28233008  0.01583370    -0.65000
O775        O  0.98514807  0.26207461  0.98702441    -1.11600
C776        C  0.51465719  0.17003466  0.09208740     1.06600
O777        O  0.59880726  0.23099554  0.99393317    -0.78200
O778        O  0.55436533  0.17696131  0.99098251    -0.65700
Ni779      Ni  0.94521296  0.29339280  0.99277273     1.34900
C780        C  0.52293108  0.17631024  0.96557813     0.85400
O781        O  0.53530708  0.31293039  0.95993207    -0.78700
O782        O  0.97078309  0.32422576  0.95220429    -0.89000
C783        C  0.61453527  0.25769621  0.00791898     0.84900
O784        O  0.96427904  0.31713267  0.04692217    -0.67200
O785        O  0.55047130  0.17717278  0.08703559    -0.86500
C786        C  0.49720464  0.32021350  0.06823207     0.85800
C787        C  0.50637194  0.33055092  0.94424269     1.07300
H788        H  0.53608911  0.24401468  0.07696012     0.39100
O789        O  0.53549346  0.23645523  0.04412472    -1.09100
O790        O  0.99481436  0.19567220  0.97312767    -0.65800
Ni791      Ni  0.98377296  0.22312975  0.02782286     1.26300
O792        O  0.52700295  0.30395404  0.05587908    -0.66000
O793        O  0.98605499  0.18484767  0.07009729    -0.78300
C794        C  0.90636193  0.23697675  0.01994428     0.85100
O795        O  0.92971544  0.21366467  0.01219395    -0.65500
Ni796      Ni  0.57501479  0.20451802  0.04086473     1.27400
Ni797      Ni  0.53744707  0.27481742  0.00226488     1.26100
H798        H  0.98387414  0.25511894  0.95393139     0.39700
O799        O  0.84886618  0.26262719  0.99513781    -0.80300
O800        O  0.68031344  0.27912530  0.01100022    -0.65000
O801        O  0.78556012  0.25602440  0.04563566    -1.11600
C802        C  0.75726964  0.16294925  0.94780276     1.06600
O803        O  0.66939505  0.22905290  0.03728517    -0.78200
O804        O  0.71623643  0.17716555  0.05368985    -0.65700
Ni805      Ni  0.82532234  0.28769065  0.04307951     1.34900
C806        C  0.74985568  0.17309991  0.07336186     0.85400
O807        O  0.73589796  0.30750441  0.06957994    -0.78700
O808        O  0.80013274  0.31290046  0.08964041    -0.89000
C809        C  0.65640027  0.25622701  0.02028818     0.84900
O810        O  0.80605346  0.31789466  0.99515991    -0.67200
O811        O  0.72204534  0.16846781  0.95829291    -0.86500
C812        C  0.77514152  0.31881321  0.96904556     0.85800
C813        C  0.76434271  0.32054130  0.09385769     1.07300
H814        H  0.73382813  0.23774969  0.95457197     0.39100
O815        O  0.73560398  0.23077509  0.98890228    -1.09100
O816        O  0.77961344  0.18847758  0.05872447    -0.65800
Ni817      Ni  0.78805667  0.21828876  0.00413518     1.26300
O818        O  0.74752516  0.29798053  0.97423292    -0.66000
O819        O  0.78634433  0.18086735  0.96172517    -0.78300
C820        C  0.86463337  0.23571386  0.00849468     0.85100
O821        O  0.84305519  0.21101470  0.01721682    -0.65500
Ni822      Ni  0.69608350  0.19932772  0.99741009     1.27400
Ni823      Ni  0.73420929  0.26965004  0.02811365     1.26100
H824        H  0.78555364  0.24805680  0.07878530     0.39700
C825        C  0.74431618  0.34154270  0.89275816    -0.11600
C826        C  0.77170479  0.34524880  0.93105798     0.05400
C827        C  0.79527280  0.37431897  0.93192767    -0.06900
C828        C  0.79201391  0.39756706  0.89426846    -0.07700
C829        C  0.76530245  0.39333901  0.85541625    -0.02200
C830        C  0.74086955  0.36506569  0.85540774     0.04600
N831        N  0.71317157  0.35890547  0.81701171     0.67100
H832        H  0.72573600  0.31982596  0.89111912     0.16000
H833        H  0.81036947  0.41941181  0.89573097     0.15700
N834        N  0.82197749  0.38155444  0.97117767     0.74800
O835        O  0.67787708  0.36477495  0.82368016    -0.38600
O836        O  0.72143415  0.33800038  0.78571958    -0.38600
O837        O  0.85778221  0.37714035  0.96585031    -0.39300
O838        O  0.81177045  0.40170622  0.00255015    -0.39400
C839        C  0.79014421  0.10105978  0.85623900    -0.11600
C840        C  0.76708579  0.07370373  0.86779590     0.05400
C841        C  0.74319890  0.07543216  0.90740616    -0.06900
C842        C  0.74192023  0.10459195  0.93347666    -0.07700
C843        C  0.76363986  0.13251150  0.92074259    -0.02200
C844        C  0.78867304  0.13041832  0.88221452     0.04600
N845        N  0.81084120  0.15811570  0.86671808     0.67100
H846        H  0.80819065  0.10008003  0.82542347     0.16000
H847        H  0.72330100  0.10549788  0.96381587     0.15700
N848        N  0.72047055  0.04788329  0.92237370     0.74800
O849        O  0.84680544  0.15877861  0.87761375    -0.38600
O850        O  0.79824554  0.17445952  0.83052174    -0.38600
O851        O  0.73283384  0.03100467  0.95814937    -0.39300
O852        O  0.68445831  0.04780104  0.91170116    -0.39400
C853        C  0.49821651  0.41697217  0.89225915    -0.11600
C854        C  0.51970366  0.41423004  0.85130054     0.05400
C855        C  0.53999679  0.38455599  0.84329734    -0.06900
C856        C  0.53685665  0.35781093  0.87527002    -0.07700
C857        C  0.51372634  0.36020468  0.91503942    -0.02200
C858        C  0.49528277  0.39053112  0.92418595     0.04600
N859        N  0.97422585  0.39545568  0.96635559     0.67100
H860        H  0.98344866  0.43995173  0.89939838     0.16000
H861        H  0.55118025  0.33467207  0.86783445     0.15700
N862        N  0.56212839  0.38034062  0.80180742     0.74800
O863        O  0.99168312  0.40889837  0.00192868    -0.38600
O864        O  0.93769418  0.39762257  0.96195353    -0.38600
O865        O  0.59865901  0.38240120  0.80646289    -0.39300
O866        O  0.54718605  0.36447159  0.76679140    -0.39400
C867        C  0.49340565  0.12663551  0.85259370    -0.11600
C868        C  0.51803670  0.09906657  0.85822508     0.05400
C869        C  0.54309522  0.09703538  0.89948314    -0.06900
C870        C  0.54380743  0.12255164  0.93306010    -0.07700
C871        C  0.51967202  0.15051892  0.92745070    -0.02200
C872        C  0.49386598  0.15219761  0.88651849     0.04600
N873        N  0.96907881  0.18000095  0.87730344     0.67100
H874        H  0.97418757  0.12868131  0.82084569     0.16000
H875        H  0.56336911  0.12003773  0.96437809     0.15700
N876        N  0.56671959  0.06864165  0.90952266     0.74800
O877        O  0.97962989  0.20197261  0.84812556    -0.38600
O878        O  0.93335943  0.17700733  0.88481154    -0.38600
O879        O  0.60302948  0.07135077  0.90624696    -0.39300
O880        O  0.55369136  0.04608743  0.93604117    -0.39400
C881        C  0.86267510  0.02441401  0.74150516    -0.11600
C882        C  0.84854353  0.49161278  0.74376044     0.05400
C883        C  0.87543491  0.46608062  0.73548117    -0.06900
C884        C  0.91509766  0.47364362  0.73308014    -0.07700
C885        C  0.92993355  0.50598444  0.73935965    -0.02200
C886        C  0.90234394  0.03199702  0.73912202     0.04600
N887        N  0.91226828  0.06566799  0.72898233     0.67100
H888        H  0.84229898  0.04482337  0.73975175     0.16000
H889        H  0.93472788  0.45360474  0.72567246     0.15700
N890        N  0.86354437  0.43307488  0.72402192     0.74800
O891        O  0.90609628  0.08719128  0.76028348    -0.38600
O892        O  0.91118586  0.07478761  0.68551761    -0.38600
O893        O  0.85840498  0.42586975  0.68023051    -0.39300
O894        O  0.87301180  0.41016119  0.75328411    -0.39400
C895        C  0.61365750  0.47350277  0.72732680    -0.11600
C896        C  0.59913450  0.50568512  0.73633622     0.05400
C897        C  0.62658784  0.03190210  0.73791219    -0.06900
C898        C  0.66627856  0.02474149  0.73927657    -0.07700
C899        C  0.68049959  0.49216578  0.73987422    -0.02600
C900        C  0.65383148  0.46671206  0.72831146     0.04600
N901        N  0.66703561  0.43529191  0.71222741     0.67100
H902        H  0.59355496  0.45346086  0.71895058     0.16000
H903        H  0.68646987  0.04535493  0.73860144     0.15700
N904        N  0.61590178  0.06582514  0.73127301     0.74800
O905        O  0.66139544  0.40940742  0.73659587    -0.38600
O906        O  0.68655308  0.43367756  0.67504138    -0.38600
O907        O  0.62727471  0.08626274  0.76296403    -0.39300
O908        O  0.61061983  0.07630691  0.68871396    -0.39400
C909        C  0.78200781  0.34601545  0.17048847    -0.11600
C910        C  0.75668743  0.34552827  0.12986906     0.05400
C911        C  0.72785270  0.37020265  0.12380928    -0.06900
C912        C  0.72755448  0.39636389  0.15616071    -0.07700
C913        C  0.75484923  0.39789358  0.19493644    -0.02200
C914        C  0.78122145  0.37162111  0.20308841     0.04600
N915        N  0.80656090  0.36966360  0.24497374     0.67100
H916        H  0.80312863  0.32640858  0.17684984     0.16000
H917        H  0.70672974  0.41615659  0.14996174     0.15700
N918        N  0.69971396  0.37010334  0.08456888     0.74800
O919        O  0.79580218  0.35254465  0.28008695    -0.38600
O920        O  0.84248911  0.37441820  0.24053596    -0.38600
O921        O  0.66536133  0.36133677  0.09261851    -0.39300
O922        O  0.70536439  0.38851459  0.04873041    -0.39400
C923        C  0.78155253  0.12027932  0.18498167    -0.11600
C924        C  0.75406601  0.09435751  0.18200315     0.05400
C925        C  0.72644478  0.09480001  0.14282870    -0.06900
C926        C  0.72619409  0.12083477  0.10933208    -0.07700
C927        C  0.75317542  0.14707005  0.11230834    -0.02200
C928        C  0.78160594  0.14629078  0.15071301     0.04600
N929        N  0.81010221  0.17183237  0.15679049     0.67100
H930        H  0.80303593  0.12055735  0.21458142     0.16000
H931        H  0.70491462  0.11980544  0.07949878     0.15700
N932        N  0.69986212  0.06809804  0.13398736     0.74800
O933        O  0.80382710  0.19489430  0.18566207    -0.38600
O934        O  0.84476247  0.16553342  0.14713492    -0.38600
O935        O  0.66433508  0.07268843  0.14110343    -0.39300
O936        O  0.70890563  0.04608807  0.10467008    -0.39400
C937        C  0.73546057  0.02063037  0.49181548    -0.11600
C938        C  0.76519966  0.50336236  0.47013192     0.05400
C939        C  0.79415432  0.48788692  0.50005948    -0.06900
C940        C  0.79218778  0.48931195  0.54969191    -0.07700
C941        C  0.76232717  0.50613930  0.57151858    -0.02200
C942        C  0.73353055  0.02206307  0.54178866     0.04600
N943        N  0.70257181  0.04045386  0.56089607     0.67100
H944        H  0.71341133  0.03331572  0.46972124     0.16000
H945        H  0.81390685  0.47593898  0.57136082     0.15700
N946        N  0.82481220  0.46885523  0.48179813     0.74800
O947        O  0.70619004  0.07148253  0.56371995    -0.38600
O948        O  0.66875790  0.02821523  0.55806542    -0.38600
O949        O  0.85867248  0.48105247  0.48422273    -0.39300
O950        O  0.82115600  0.43774112  0.48194657    -0.39400
C951        C  0.97544814  0.39136616  0.15255149    -0.11600
C952        C  0.50851090  0.39217202  0.18365562     0.05400
C953        C  0.53827319  0.36866358  0.17638715    -0.06900
C954        C  0.53413835  0.34572746  0.13862834    -0.07700
C955        C  0.50039896  0.34462446  0.10838320    -0.02200
C956        C  0.97046605  0.36784979  0.11657895     0.04600
N957        N  0.93421976  0.36838872  0.08943436     0.67100
H958        H  0.95257149  0.40937276  0.15583372     0.16000
H959        H  0.55732970  0.32817069  0.13370342     0.15700
N960        N  0.57202836  0.36620231  0.20781730     0.74800
O961        O  0.92832288  0.39146785  0.05927380    -0.38600
O962        O  0.90512056  0.35491465  0.10759298    -0.38600
O963        O  0.57305059  0.34352296  0.23928058    -0.39300
O964        O  0.60377106  0.37750176  0.19354515    -0.39400
C965        C  0.51013757  0.08305295  0.13989619    -0.11600
C966        C  0.00185985  0.08854548  0.18740149     0.05400
C967        C  0.99440517  0.12051454  0.20354571    -0.06900
C968        C  0.99681241  0.14740587  0.17155893    -0.07700
C969        C  0.50656045  0.14198287  0.12374753    -0.02200
C970        C  0.51267136  0.10938951  0.10795054     0.04600
N971        N  0.52291575  0.10241731  0.06009058     0.67100
H972        H  0.51574271  0.05809990  0.12803663     0.16000
H973        H  0.99260859  0.17235868  0.18427543     0.15700
N974        N  0.98634586  0.12552935  0.25280229     0.74800
O975        O  0.55801038  0.09597273  0.05289274    -0.38600
O976        O  0.49689852  0.09116450  0.03128451    -0.38600
O977        O  0.01367746  0.12246355  0.28425042    -0.39300
O978        O  0.95174612  0.12247226  0.26537776    -0.39400
C979        C  0.86054321  0.00236642  0.24866971    -0.11600
C980        C  0.84256878  0.49317072  0.29095276     0.05400
C981        C  0.86459687  0.47222576  0.32319109    -0.06900
C982        C  0.90491376  0.47078075  0.32065363    -0.07700
C983        C  0.92392164  0.48630878  0.28350374    -0.02200
C984        C  0.90030796  0.99728193  0.24331985     0.04600
N985        N  0.91348478  0.99651942  0.19533701     0.67100
H986        H  0.84300852  0.01004316  0.21744989     0.16000
H987        H  0.92120433  0.45528103  0.34618034     0.15700
N988        N  0.84711214  0.44800663  0.35301032     0.74800
O989        O  0.91045292  0.02239134  0.16972537    -0.38600
O990        O  0.91252103  0.96897959  0.17426775    -0.38600
O991        O  0.83832997  0.42042121  0.33453066    -0.39300
O992        O  0.85624219  0.44840986  0.39721154    -0.39400
C993        C  0.61371588  0.46522479  0.30045793    -0.11600
C994        C  0.59232138  0.49441543  0.29419553     0.05400
C995        C  0.61293296  0.02487453  0.30044052    -0.06900
C996        C  0.65351752  0.02515513  0.29885975    -0.07700
C997        C  0.67471792  0.49568438  0.29706263    -0.02200
C998        C  0.65419480  0.46561760  0.30479007     0.04600
N999        N  0.67276464  0.43644909  0.32404587     0.67100
H1000       H  0.59889861  0.44190110  0.30586706     0.16000
H1001       H  0.66865481  0.04856053  0.30290826     0.15700
N1002       N  0.59476412  0.05452537  0.31602732     0.74800
O1003       O  0.67060711  0.41019623  0.29982442    -0.38600
O1004       O  0.67631193  0.43372350  0.36915564    -0.38600
O1005       O  0.59227786  0.05844889  0.36064886    -0.39300
O1006       O  0.59622442  0.08012943  0.28986354    -0.39400
C1007       C  0.98417436  0.01991919  0.48506643    -0.11600
C1008       C  0.51069861  0.49852979  0.46459725     0.05400
C1009       C  0.53595896  0.47957033  0.49510168    -0.06900
C1010       C  0.53422136  0.48238353  0.54474409    -0.07700
C1011       C  0.50792026  0.50383085  0.56532462    -0.02200
C1012       C  0.98248279  0.02278385  0.53490136     0.04600
N1013       N  0.95601024  0.04610274  0.55333453     0.67100
H1014       H  0.96493089  0.03489968  0.46205881     0.16000
H1015       H  0.55338905  0.46723894  0.56761833     0.15700
N1016       N  0.56225555  0.45605659  0.47684626     0.74800
O1017       O  0.96570113  0.07626326  0.55420167    -0.38600
O1018       O  0.92031387  0.03877469  0.55258091    -0.38600
O1019       O  0.59795795  0.46332093  0.47718917    -0.39300
O1020       O  0.55249350  0.42591105  0.47668570    -0.39400
C1021       C  0.54810431  0.99151802  0.28983457     0.30600
C1022       C  0.96836334  0.98815654  0.28682912     0.30600
C1023       C  0.52906130  0.99253485  0.33844206    -0.05600
C1024       C  0.52662283  0.51864076  0.26100899    -0.06400
C1025       C  0.52986787  0.96003199  0.26650894    -0.06200
C1026       C  0.98857911  0.99125671  0.33718149    -0.05600
C1027       C  0.98619465  0.51783972  0.26133413    -0.06300
C1028       C  0.98942757  0.95830686  0.26611188    -0.06200
C1029       C  0.97782284  0.99416073  0.38398594    -0.31600
N1030       N  0.51041185  0.49564264  0.41323963     0.14900
C1031       C  0.54190594  0.99502896  0.38570692    -0.31600
H1032       H  0.57184485  0.99698702  0.39890233     0.16800
C1033       C  0.97284126  0.54586621  0.23798887    -0.30600
N1034       N  0.00372206  0.56137696  0.21980727     0.13600
C1035       C  0.53654505  0.54463655  0.23232485    -0.30600
C1036       C  0.97826659  0.93112642  0.23976257    -0.30900
N1037       N  0.01021212  0.91683301  0.22140948     0.14100
H1038       H  0.94844682  0.92360515  0.23225118     0.16700
C1039       C  0.54186320  0.93468555  0.23724212    -0.30900
H1040       H  0.57093760  0.93152814  0.22498655     0.16700
H1041       H  0.56516082  0.55067048  0.22026688     0.16700
H1042       H  0.94851277  0.99519879  0.39632672     0.16800
H1043       H  0.94320192  0.55450723  0.23403804     0.16700
C1044       C  0.71888549  0.99736213  0.29401084     0.30600
C1045       C  0.79854798  0.99727096  0.29291758     0.30600
C1046       C  0.74089225  0.99746560  0.34304516    -0.05600
C1047       C  0.73724314  0.96845513  0.26846221    -0.06400
C1048       C  0.73729784  0.52721595  0.26762264    -0.06200
C1049       C  0.78125703  0.99809572  0.34271564    -0.05600
C1050       C  0.77748269  0.96811322  0.26906971    -0.06300
C1051       C  0.77800224  0.52744931  0.26734573    -0.06200
C1052       C  0.79484870  0.00134576  0.38972845    -0.31600
N1053       N  0.76404188  0.00071326  0.41853206     0.14900
C1054       C  0.73095271  0.99876612  0.39008029    -0.31600
H1055       H  0.70164493  0.99862212  0.40261451     0.16800
C1056       C  0.78847137  0.94191381  0.24208012    -0.30600
N1057       N  0.75590346  0.92635643  0.22500537     0.13600
C1058       C  0.72450947  0.94334824  0.23884977    -0.30600
C1059       C  0.78810343  0.55349681  0.23743628    -0.30900
N1060       N  0.75524223  0.56792716  0.21791096     0.14100
H1061       H  0.81723486  0.56054164  0.22843625     0.16700
C1062       C  0.72419619  0.55203798  0.23631190    -0.30900
H1063       H  0.69416184  0.55744474  0.22653549     0.16700
H1064       H  0.69472789  0.93821629  0.22720016     0.16700
H1065       H  0.82473515  0.00537746  0.40181318     0.16800
H1066       H  0.81787357  0.93566079  0.23353236     0.16700
C1067       C  0.55476288  0.00994171  0.74048425     0.30600
C1068       C  0.97463175  0.01000179  0.74168417     0.30600
C1069       C  0.53237898  0.00684919  0.69212229    -0.05600
C1070       C  0.53641666  0.98269955  0.77078265    -0.06400
C1071       C  0.53639984  0.54151299  0.76181000    -0.06200
C1072       C  0.49211096  0.00688487  0.69256134    -0.05600
C1073       C  0.49611732  0.98282108  0.77172082    -0.06300
C1074       C  0.49493048  0.54153455  0.76191503    -0.06200
C1075       C  0.97804431  0.00647519  0.64546954    -0.31600
N1076       N  0.50889871  0.00637519  0.61674788     0.14900
C1077       C  0.54209774  0.00646015  0.64504548    -0.31600
H1078       H  0.57130843  0.00686757  0.63217135     0.16800
C1079       C  0.98597977  0.95732103  0.80183447    -0.30600
N1080       N  0.51874769  0.94127427  0.81764990     0.13600
C1081       C  0.54982617  0.95694013  0.79981102    -0.30600
C1082       C  0.98514200  0.56135712  0.79959265    -0.30900
N1083       N  0.51762510  0.57440358  0.82100620     0.14100
H1084       H  0.95672126  0.56326096  0.81419292     0.16700
C1085       C  0.54875936  0.56110726  0.80024799    -0.30900
H1086       H  0.57822901  0.56336110  0.81460287     0.16700
H1087       H  0.57983292  0.95056645  0.80851911     0.16700
H1088       H  0.94778508  0.00613199  0.63319157     0.16800
H1089       H  0.95691045  0.95084863  0.81195756     0.16700
C1090       C  0.72457286  0.98745702  0.74440983     0.30600
C1091       C  0.80422344  0.98711465  0.74654793     0.30600
C1092       C  0.74334165  0.99577561  0.69729767    -0.05600
C1093       C  0.74513123  0.51082575  0.78057370    -0.06400
C1094       C  0.74351185  0.95386552  0.75979631    -0.06200
C1095       C  0.78334215  0.99582641  0.69858840    -0.05600
C1096       C  0.78540911  0.51073739  0.78158538    -0.06300
C1097       C  0.78502741  0.95363243  0.76081611    -0.06200
C1098       C  0.79438183  0.00247711  0.65286623    -0.31600
N1099       N  0.76200995  0.50565080  0.62325417     0.14900
C1100       C  0.73048912  0.00157524  0.65036737    -0.31600
H1101       H  0.70060558  0.00051482  0.63678905     0.16800
C1102       C  0.79798207  0.53247457  0.81672640    -0.30600
N1103       N  0.76642838  0.54563528  0.83679199     0.13600
C1104       C  0.73401330  0.53234506  0.81536715    -0.30600
C1105       C  0.79622704  0.93153749  0.79723929    -0.30900
N1106       N  0.76459160  0.91692547  0.81583937     0.14100
H1107       H  0.82543787  0.92893228  0.81264673     0.16700
C1108       C  0.73269272  0.93174927  0.79531135    -0.30900
H1109       H  0.70398473  0.92976685  0.80936487     0.16700
H1110       H  0.70459627  0.53890091  0.82334679     0.16700
H1111       H  0.82407845  0.00354870  0.64171368     0.16800
H1112       H  0.82782537  0.53879772  0.82666572     0.16700
O1113       O  0.91982208  0.76422769  0.03517667    -0.80300
O1114       O  0.59275297  0.78233013  0.01583360    -0.65000
O1115       O  0.98514811  0.76207456  0.98702439    -1.11600
C1116       C  0.51465752  0.67003444  0.09208689     1.06600
O1117       O  0.59880735  0.73099569  0.99393268    -0.78200
O1118       O  0.55436544  0.67696145  0.99098168    -0.65700
Ni1119     Ni  0.94521297  0.79339272  0.99277288     1.34900
C1120       C  0.52293102  0.67631029  0.96557764     0.85400
O1121       O  0.53530700  0.81293047  0.95993220    -0.78700
O1122       O  0.97078301  0.82422573  0.95220441    -0.89000
C1123       C  0.61453533  0.75769632  0.00791868     0.84900
O1124       O  0.96427909  0.81713258  0.04692231    -0.67200
O1125       O  0.55047162  0.67717248  0.08703476    -0.86500
C1126       C  0.49720467  0.82021337  0.06823221     0.85800
C1127       C  0.50637183  0.83055095  0.94424276     1.07300
H1128       H  0.53608939  0.74401449  0.07695995     0.39100
O1129       O  0.53549363  0.73645513  0.04412448    -1.09100
O1130       O  0.99481433  0.69567215  0.97312753    -0.65800
Ni1131     Ni  0.98377310  0.72312966  0.02782281     1.26300
O1132       O  0.52700297  0.80395389  0.05587922    -0.66000
O1133       O  0.98605526  0.68484757  0.07009718    -0.78300
C1134       C  0.90636203  0.73697662  0.01994444     0.85100
O1135       O  0.92971554  0.71366457  0.01219408    -0.65500
Ni1136     Ni  0.57501498  0.70451795  0.04086407     1.27400
Ni1137     Ni  0.53744709  0.77481742  0.00226484     1.26100
H1138       H  0.98387419  0.75511901  0.95393178     0.39700
O1139       O  0.84886631  0.76262706  0.99513776    -0.80300
O1140       O  0.68031352  0.77912536  0.01099988    -0.65000
O1141       O  0.78556017  0.75602443  0.04563558    -1.11600
C1142       C  0.75726963  0.66294923  0.94780271     1.06600
O1143       O  0.66939508  0.72905301  0.03728497    -0.78200
O1144       O  0.71623634  0.67716556  0.05368971    -0.65700
Ni1145     Ni  0.82532242  0.78769066  0.04307925     1.34900
C1146       C  0.74985555  0.67309993  0.07336186     0.85400
O1147       O  0.73589799  0.80750455  0.06957953    -0.78700
O1148       O  0.80013277  0.81290063  0.08963996    -0.89000
C1149       C  0.65640032  0.75622711  0.02028791     0.84900
O1150       O  0.80605362  0.81789454  0.99515943    -0.67200
O1151       O  0.72204532  0.66846786  0.95829276    -0.86500
C1152       C  0.77514165  0.81881310  0.96904512     0.85800
C1153       C  0.76434275  0.82054150  0.09385720     1.07300
H1154       H  0.73382836  0.73774927  0.95457360     0.39100
O1155       O  0.73560404  0.73077514  0.98890188    -1.09100
O1156       O  0.77961336  0.68847761  0.05872456    -0.65800
Ni1157     Ni  0.78805672  0.71828870  0.00413521     1.26300
O1158       O  0.74752525  0.79798049  0.97423258    -0.66000
O1159       O  0.78634435  0.68086726  0.96172525    -0.78300
C1160       C  0.86463346  0.73571374  0.00849478     0.85100
O1161       O  0.84305524  0.71101461  0.01721694    -0.65500
Ni1162     Ni  0.69608350  0.69932777  0.99740996     1.27400
Ni1163     Ni  0.73420934  0.76965010  0.02811344     1.26100
H1164       H  0.78555367  0.74805700  0.07878477     0.39700
C1165       C  0.74431626  0.84154260  0.89275774    -0.11600
C1166       C  0.77170495  0.84524866  0.93105749     0.05400
C1167       C  0.79527301  0.87431879  0.93192714    -0.06900
C1168       C  0.79201408  0.89756691  0.89426797    -0.07700
C1169       C  0.76530256  0.89333890  0.85541581    -0.02200
C1170       C  0.74086962  0.86506560  0.85540733     0.04600
N1171       N  0.71317160  0.85890540  0.81701133     0.67100
H1172       H  0.72573605  0.81982588  0.89111874     0.16000
H1173       H  0.81036968  0.91941164  0.89573047     0.15700
N1174       N  0.82197784  0.88155418  0.97117703     0.74800
O1175       O  0.67787709  0.86477470  0.82367994    -0.38600
O1176       O  0.72143423  0.83800044  0.78571904    -0.38600
O1177       O  0.85778252  0.87714000  0.96584950    -0.39300
O1178       O  0.81177095  0.90170591  0.00254965    -0.39400
C1179       C  0.79014399  0.60105980  0.85623883    -0.11600
C1180       C  0.76708562  0.57370374  0.86779582     0.05400
C1181       C  0.74319879  0.57543217  0.90740614    -0.06900
C1182       C  0.74192019  0.60459195  0.93347666    -0.07700
C1183       C  0.76363980  0.63251149  0.92074253    -0.02200
C1184       C  0.78867286  0.63041833  0.88221434     0.04600
N1185       N  0.81084089  0.65811575  0.86671773     0.67100
H1186       H  0.80819034  0.60008004  0.82542322     0.16000
H1187       H  0.72330101  0.60549788  0.96381592     0.15700
N1188       N  0.72047044  0.54788331  0.92237373     0.74800
O1189       O  0.84680514  0.65877878  0.87761330    -0.38600
O1190       O  0.79824510  0.67445947  0.83052137    -0.38600
O1191       O  0.73283382  0.53100465  0.95814934    -0.39300
O1192       O  0.68445817  0.54780113  0.91170140    -0.39400
C1193       C  0.49821639  0.91697217  0.89225910    -0.11600
C1194       C  0.51970363  0.91423004  0.85130057     0.05400
C1195       C  0.53999677  0.88455600  0.84329743    -0.06900
C1196       C  0.53685660  0.85781095  0.87527013    -0.07700
C1197       C  0.51372620  0.86020469  0.91503946    -0.02200
C1198       C  0.49528257  0.89053112  0.92418589     0.04600
N1199       N  0.97422564  0.89545571  0.96635556     0.67100
H1200       H  0.98344854  0.93995173  0.89939831     0.16000
H1201       H  0.55118023  0.83467209  0.86783462     0.15700
N1202       N  0.56212839  0.88034060  0.80180753     0.74800
O1203       O  0.99168292  0.90889831  0.00192872    -0.38600
O1204       O  0.93769398  0.89762272  0.96195343    -0.38600
O1205       O  0.59865901  0.88240125  0.80646299    -0.39300
O1206       O  0.54718608  0.86447152  0.76679154    -0.39400
C1207       C  0.49340542  0.62663558  0.85259326    -0.11600
C1208       C  0.51803651  0.59906667  0.85822458     0.05400
C1209       C  0.54309503  0.59703544  0.89948263    -0.06900
C1210       C  0.54380722  0.62255166  0.93305964    -0.07700
C1211       C  0.51967184  0.65051897  0.92745025    -0.02200
C1212       C  0.49386575  0.65219766  0.88651808     0.04600
N1213       N  0.96907864  0.68000101  0.87730313     0.67100
H1214       H  0.97418741  0.62868140  0.82084532     0.16000
H1215       H  0.56336886  0.62003772  0.96437766     0.15700
N1216       N  0.56671945  0.56864173  0.90952207     0.74800
O1217       O  0.97962961  0.70197263  0.84812513    -0.38600
O1218       O  0.93335928  0.67700736  0.88481135    -0.38600
O1219       O  0.60302932  0.57135089  0.90624628    -0.39300
O1220       O  0.55369130  0.54608749  0.93604060    -0.39400
C1221       C  0.86267497  0.52441392  0.74150514    -0.11600
C1222       C  0.84854363  0.99161288  0.74376033     0.05400
C1223       C  0.87543499  0.96608072  0.73548096    -0.06900
C1224       C  0.91509775  0.97364370  0.73308000    -0.07700
C1225       C  0.92993367  0.00598450  0.73935965    -0.02200
C1226       C  0.90234380  0.53199695  0.73912194     0.04600
N1227       N  0.91226810  0.56566790  0.72898208     0.67100
H1228       H  0.84229884  0.54482326  0.73975166     0.16000
H1229       H  0.93472796  0.95360483  0.72567226     0.15700
N1230       N  0.86354441  0.93307503  0.72402148     0.74800
O1231       O  0.90609608  0.58719125  0.76028314    -0.38600
O1232       O  0.91118561  0.57478743  0.68551732    -0.38600
O1233       O  0.85840494  0.92587006  0.68023003    -0.39300
O1234       O  0.87301182  0.91016122  0.75328349    -0.39400
C1235       C  0.61365760  0.97350284  0.72732688    -0.11600
C1236       C  0.59913460  0.00568518  0.73633642     0.05400
C1237       C  0.62658776  0.53190203  0.73791197    -0.06900
C1238       C  0.66627848  0.52474140  0.73927646    -0.07700
C1239       C  0.68049969  0.99216588  0.73987421    -0.02600
C1240       C  0.65383157  0.96671216  0.72831144     0.04600
N1241       N  0.66703570  0.93529202  0.71222733     0.67100
H1242       H  0.59355506  0.95346094  0.71895064     0.16000
H1243       H  0.68646980  0.54535483  0.73860132     0.15700
N1244       N  0.61590173  0.56582506  0.73127261     0.74800
O1245       O  0.66139540  0.90940749  0.73659566    -0.38600
O1246       O  0.68655324  0.93367770  0.67504135    -0.38600
O1247       O  0.62727469  0.58626274  0.76296351    -0.39300
O1248       O  0.61061979  0.57630673  0.68871350    -0.39400
C1249       C  0.78200783  0.84601577  0.17048788    -0.11600
C1250       C  0.75668748  0.84552856  0.12986845     0.05400
C1251       C  0.72785283  0.87020299  0.12380853    -0.06900
C1252       C  0.72755461  0.89636428  0.15615990    -0.07700
C1253       C  0.75484932  0.89789397  0.19493568    -0.02200
C1254       C  0.78122152  0.87162150  0.20308771     0.04600
N1255       N  0.80656106  0.86966407  0.24497297     0.67100
H1256       H  0.80312862  0.82640889  0.17684933     0.16000
H1257       H  0.70672990  0.91615700  0.14996087     0.15700
N1258       N  0.69971414  0.87010367  0.08456808     0.74800
O1259       O  0.79580246  0.85254515  0.28008628    -0.38600
O1260       O  0.84248925  0.87441872  0.24053505    -0.38600
O1261       O  0.66536148  0.86133716  0.09261767    -0.39300
O1262       O  0.70536463  0.88851487  0.04872957    -0.39400
C1263       C  0.78155228  0.62027927  0.18498173    -0.11600
C1264       C  0.75406569  0.59435751  0.18200324     0.05400
C1265       C  0.72644437  0.59480012  0.14282888    -0.06900
C1266       C  0.72619375  0.62083487  0.10933224    -0.07700
C1267       C  0.75317518  0.64707009  0.11230841    -0.02200
C1268       C  0.78160570  0.64629077  0.15071310     0.04600
N1269       N  0.81010196  0.67183236  0.15679067     0.67100
H1270       H  0.80303570  0.62055726  0.21458145     0.16000
H1271       H  0.70491423  0.61980561  0.07949899     0.15700
N1272       N  0.69986151  0.56809828  0.13398768     0.74800
O1273       O  0.80382678  0.69489428  0.18566223    -0.38600
O1274       O  0.84476224  0.66553341  0.14713522    -0.38600
O1275       O  0.66433455  0.57268883  0.14110401    -0.39300
O1276       O  0.70890474  0.54608826  0.10467034    -0.39400
C1277       C  0.73546051  0.52063050  0.49181561    -0.11600
C1278       C  0.76519967  0.00336218  0.47013181     0.05400
C1279       C  0.79415431  0.98788670  0.50005938    -0.06900
C1280       C  0.79218778  0.98931177  0.54969181    -0.07700
C1281       C  0.76232721  0.00613918  0.57151846    -0.02200
C1282       C  0.73353050  0.52206317  0.54178879     0.04600
N1283       N  0.70257175  0.54045395  0.56089622     0.67100
H1284       H  0.71341125  0.53331583  0.46972138     0.16000
H1285       H  0.81390682  0.97593879  0.57136074     0.15700
N1286       N  0.82481210  0.96885491  0.48179801     0.74800
O1287       O  0.70619002  0.57148260  0.56372028    -0.38600
O1288       O  0.66875781  0.52821537  0.55806539    -0.38600
O1289       O  0.85867246  0.98105200  0.48422271    -0.39300
O1290       O  0.82115570  0.93774082  0.48194628    -0.39400
C1291       C  0.97544808  0.89136592  0.15255183    -0.11600
C1292       C  0.50851089  0.89217181  0.18365592     0.05400
C1293       C  0.53827320  0.86866339  0.17638739    -0.06900
C1294       C  0.53413836  0.84572728  0.13862857    -0.07700
C1295       C  0.50039896  0.84462427  0.10838343    -0.02200
C1296       C  0.97046603  0.86784958  0.11657924     0.04600
N1297       N  0.93421979  0.86838854  0.08943456     0.67100
H1298       H  0.95257141  0.90937249  0.15583409     0.16000
H1299       H  0.55732973  0.82817055  0.13370359     0.15700
N1300       N  0.57202842  0.86620217  0.20781748     0.74800
O1301       O  0.92832300  0.89146764  0.05927392    -0.38600
O1302       O  0.90512052  0.85491451  0.10759311    -0.38600
O1303       O  0.57305067  0.84352288  0.23928086    -0.39300
O1304       O  0.60377110  0.87750157  0.19354521    -0.39400
C1305       C  0.51013883  0.58305278  0.13989609    -0.11600
C1306       C  0.00186025  0.58854532  0.18740113     0.05400
C1307       C  0.99440475  0.62051433  0.20354497    -0.06900
C1308       C  0.99681200  0.64740560  0.17155810    -0.07700
C1309       C  0.50656090  0.64198261  0.12374702    -0.02200
C1310       C  0.51267265  0.60938930  0.10795038     0.04600
N1311       N  0.52291774  0.60241709  0.06009067     0.67100
H1312       H  0.51574452  0.55809977  0.12803680     0.16000
H1313       H  0.99260751  0.67235839  0.18427433     0.15700
N1314       N  0.98634457  0.62552917  0.25280127     0.74800
O1315       O  0.55801258  0.59597283  0.05289352    -0.38600
O1316       O  0.49690100  0.59116401  0.03128417    -0.38600
O1317       O  0.01367565  0.62246347  0.28425012    -0.39300
O1318       O  0.95174457  0.62247215  0.26537582    -0.39400
C1319       C  0.86054309  0.50236641  0.24866973    -0.11600
C1320       C  0.84256885  0.99317075  0.29095272     0.05400
C1321       C  0.86459688  0.97222574  0.32319106    -0.06900
C1322       C  0.90491379  0.97078077  0.32065375    -0.07700
C1323       C  0.92392171  0.98630875  0.28350386    -0.02200
C1324       C  0.90030785  0.49728198  0.24331979     0.04600
N1325       N  0.91348460  0.49651952  0.19533693     0.67100
H1326       H  0.84300836  0.51004313  0.21744992     0.16000
H1327       H  0.92120432  0.95528104  0.34618049     0.15700
N1328       N  0.84711206  0.94800645  0.35300993     0.74800
O1329       O  0.91045264  0.52239144  0.16972531    -0.38600
O1330       O  0.91252082  0.46897970  0.17426764    -0.38600
O1331       O  0.83833001  0.92042111  0.33452994    -0.39300
O1332       O  0.85624188  0.94840948  0.39721122    -0.39400
C1333       C  0.61371595  0.96522493  0.30045777    -0.11600
C1334       C  0.59232144  0.99441554  0.29419526     0.05400
C1335       C  0.61293292  0.52487440  0.30044093    -0.06900
C1336       C  0.65351748  0.52515499  0.29886013    -0.07700
C1337       C  0.67471799  0.99568453  0.29706240    -0.02200
C1338       C  0.65419487  0.96561775  0.30478988     0.04600
N1339       N  0.67276474  0.93644923  0.32404559     0.67100
H1340       H  0.59889871  0.94190124  0.30586696     0.16000
H1341       H  0.66865480  0.54856037  0.30290869     0.15700
N1342       N  0.59476409  0.55452519  0.31602788     0.74800
O1343       O  0.67060729  0.91019643  0.29982401    -0.38600
O1344       O  0.67631195  0.93372354  0.36915535    -0.38600
O1345       O  0.59227794  0.55844866  0.36064944    -0.39300
O1346       O  0.59622429  0.58012928  0.28986414    -0.39400
C1347       C  0.98417418  0.51991926  0.48506642    -0.11600
C1348       C  0.51069899  0.99852991  0.46459731     0.05400
C1349       C  0.53595957  0.97957070  0.49510179    -0.06900
C1350       C  0.53422190  0.98238389  0.54474420    -0.07700
C1351       C  0.50792057  0.00383103  0.56532470    -0.02200
C1352       C  0.98248258  0.52278384  0.53490135     0.04600
N1353       N  0.95601011  0.54610277  0.55333459     0.67100
H1354       H  0.96493086  0.53489990  0.46205881     0.16000
H1355       H  0.55338974  0.96723945  0.56761846     0.15700
N1356       N  0.56225655  0.95605725  0.47684645     0.74800
O1357       O  0.96570103  0.57626329  0.55420165    -0.38600
O1358       O  0.92031373  0.53877475  0.55258110    -0.38600
O1359       O  0.59795884  0.96332200  0.47718939    -0.39300
O1360       O  0.55249499  0.92591159  0.47668598    -0.39400
loop_ 
_geom_bond_atom_site_label_1 
_geom_bond_atom_site_label_2 
_geom_bond_distance 
_geom_bond_site_symmetry_2 
_ccdc_geom_bond_type 
C1            C3   1.533       .  S
C1            C5   1.551       .  S
C1          C314   1.525       .  S
C1          C344   1.526       .  S
C2            C6   1.544       .  S
C2            C8   1.539       .  S
C2          C303   1.530       .  S
C2          C347   1.529       .  S
C3           C11   1.375       .  A
C3          C686   1.393   1_455  A
C4          C341   1.526   1_545  S
C4           C15   1.366       .  A
C4          C687   1.392   1_455  A
C5           C19   1.390       .  A
C5          C688   1.393   1_455  A
C6            C9   1.378       .  A
C6          C683   1.393       .  A
C7          C342   1.529   1_545  S
C7           C13   1.371       .  A
C7          C684   1.392       .  A
C8           C16   1.370       .  A
C8          C685   1.393       .  A
C9           H22   1.081       .  S
C9         N1030   1.358       .  A
N10        C1029   1.358   1_455  A
N10         C351   1.357       .  A
N10         C668   1.437       .  S
C11          H12   1.081       .  S
C11         N350   1.357       .  A
C13          H23   1.080       .  S
C13          N14   1.348       .  A
N14         C695   1.349       .  A
N14         C286   1.415       .  S
C15          H21   1.081       .  S
C15         N694   1.349       .  A
C16          H18   1.081       .  S
C16          N17   1.365       .  A
N17         C699   1.363       .  A
N17         C952   1.455       .  S
C19          H20   1.080       .  S
C19         N697   1.363       .  A
C24          C26   1.533       .  S
C24          C27   1.526       .  S
C24         C317   1.528       .  S
C24         C368   1.555       .  S
C25          C29   1.536       .  S
C25          C30   1.523       .  S
C25         C300   1.528       .  S
C25         C371   1.562       .  S
C26          C34   1.371       .  A
C26          C29   1.390       .  A
C27          C38   1.371       .  A
C27          C30   1.384       .  A
C28         C364   1.555   1_545  S
C28          C42   1.386       .  A
C28          C31   1.401       .  A
C29          C32   1.379       .  A
C30          C36   1.368       .  A
C31         C365   1.562   1_545  S
C31          C39   1.389       .  A
C32          H45   1.080       .  S
C32          N33   1.359       .  A
N33          C34   1.361       .  A
N33         C258   1.442       .  S
C34          H35   1.082       .  S
C36          H46   1.081       .  S
C36          N37   1.353       .  A
N37          C38   1.355       .  A
N37         C233   1.428       .  S
C38          H44   1.081       .  S
C39          H41   1.081       .  S
C39          N40   1.363       .  A
N40          C42   1.362       .  A
N40         C244   1.456       .  S
C42          H43   1.080       .  S
C47          C49   1.528       .  S
C47          C50   1.533       .  S
C47         C216   1.547       .  S
C47         C391   1.559       .  S
C48         C205   1.545       .  S
C48         C732   1.527       .  S
C48        C1074   1.549       .  S
C48         C733   1.545       .  S
C49          C57   1.369       .  A
C49          C52   1.387   1_455  A
C50          C61   1.380       .  A
C50          C53   1.389   1_455  A
C51         C387   1.559       .  S
C51          C65   1.388       .  A
C51          C54   1.427   1_455  A
C52         C728   1.527       .  S
C52         C735   1.379       .  A
C53         C728   1.545       .  S
C53         C739   1.377       .  A
C54        C1068   1.549       .  S
C54         C742   1.381       .  A
C55         C732   1.379       .  A
C55          H68   1.082       .  S
C55         N736   1.359       .  A
N56          C57   1.359       .  A
N56         C735   1.359   1_455  A
N56         C331   1.437       .  S
C57          H58   1.083       .  S
C59         C733   1.377       .  A
C59          H69   1.082       .  S
C59         N740   1.357       .  A
N60          C61   1.353       .  A
N60         C739   1.357   1_455  A
N60         C174   1.433       .  S
C61          H67   1.082       .  S
C62         C734   1.381       .  A
C62          H64   1.080       .  S
C62         N743   1.351       .  A
N63          C65   1.355       .  A
N63         C742   1.351   1_455  A
N63         C188   1.444       .  S
C65          H66   1.077       .  S
C70          C72   1.524       .  S
C70          C74   1.556       .  S
C70         C219   1.529       .  S
C70         C413   1.535       .  S
C71          C75   1.528       .  S
C71          C77   1.559       .  S
C71         C202   1.541       .  S
C71         C416   1.537       .  S
C72          C80   1.380       .  A
C72          C75   1.376       .  A
C73         C410   1.535   1_545  S
C73          C84   1.376       .  A
C73          C76   1.385       .  A
C74          C88   1.390       .  A
C74          C77   1.428       .  A
C75          C78   1.370       .  A
C76         C411   1.537   1_545  S
C76          C82   1.376       .  A
C77          C85   1.388       .  A
C78          H91   1.082       .  S
C78         N419   1.362       .  A
N79         C418   1.362       .  A
N79         C420   1.359       .  A
N79         C601   1.443       .  S
C80          H81   1.081       .  S
C80         N419   1.359       .  A
C82          H92   1.082       .  S
C82          N83   1.356       .  A
N83          C84   1.353       .  A
N83         C160   1.431       .  S
C84          H90   1.081       .  S
C85          H87   1.081       .  S
C85          N86   1.358       .  A
N86          C88   1.354       .  A
N86         C149   1.451       .  S
C88          H89   1.082       .  S
O93         Ni99   1.900   1_554  S
O93         C114   1.262       .  A
O94        Ni117   1.947       .  S
O94         C103   1.275       .  A
O95         Ni99   1.884       .  S
O95        Ni111   1.934   1_556  S
O95        Ni797   1.901   1_556  S
O95         H118   0.966       .  S
C96         O105   1.279       .  A
C96         O793   1.283   1_455  A
C96         C289   1.464       .  S
O97        Ni116   1.895   1_556  S
O97         C103   1.262   1_556  A
O98        Ni116   1.900   1_556  S
O98         C100   1.267       .  A
Ni99        O102   1.913       .  S
Ni99        O104   1.887   1_556  S
C100        O790   1.272   1_455  A
C100        C191   1.495       .  S
O101       Ni117   1.931   1_556  S
O101        C107   1.284       .  A
O102        C787   1.279       .  A
C103        C129   1.468       .  S
O104        C786   1.262       .  A
O105       Ni116   1.912       .  S
C106        O112   1.281   1_655  A
C106        O784   1.262       .  A
C106        C275   1.498   1_655  S
C107        O782   1.279   1_455  A
C107        C177   1.470       .  S
H108        O109   0.967       .  S
O109       Ni117   1.934       .  S
O109       Ni116   1.883       .  S
O109       Ni791   1.895   1_455  S
O110       Ni111   1.945   1_556  S
O110        C780   1.272       .  A
Ni111       O115   1.929       .  S
Ni111       O113   1.935       .  S
Ni111       O789   1.895       .  S
O112       Ni117   1.957       .  S
O113        C776   1.283       .  A
C114        O115   1.266       .  A
C114        C140   1.458       .  S
Ni117       O775   1.901   1_454  S
O119       Ni125   1.896   1_556  S
O119        C140   1.262   1_556  A
O120       Ni143   1.933       .  S
O120        C129   1.269       .  A
O121       Ni125   1.873       .  S
O121       Ni143   1.895       .  S
O121       Ni137   1.926       .  S
O121        H144   0.976       .  S
C122        O139   1.281       .  A
C122        O131   1.281       .  A
C122        C163   1.470       .  S
O123       Ni142   1.909   1_554  S
O123        C129   1.266       .  A
O124       Ni142   1.904   1_554  S
O124        C126   1.269       .  A
Ni125       O128   1.898       .  S
Ni125       O130   1.900   1_554  S
C126        O136   1.277       .  A
C126        C247   1.505       .  S
O127       Ni143   1.924       .  S
O127        C133   1.279       .  A
O128        C133   1.282       .  A
O130        C132   1.262       .  A
O131       Ni142   1.913       .  S
C132        O138   1.279       .  A
C132        C146   1.498       .  S
C133        C230   1.463       .  S
H134        O135   0.995       .  S
O135       Ni143   1.923   1_556  S
O135       Ni137   1.905   1_556  S
O135       Ni142   1.879       .  S
O136       Ni137   1.963       .  S
Ni137       O141   1.935       .  S
Ni137       O139   1.926   1_554  S
O138       Ni143   1.950   1_556  S
C140        O141   1.270       .  A
C145        C146   1.401       .  A
C145        C150   1.405       .  A
C145        H152   1.084       .  S
C146        C147   1.424       .  A
C147        C148   1.403       .  A
C147        N154   1.429       .  S
C148        C149   1.400       .  A
C148        H153   1.083       .  S
C149        C150   1.416       .  A
C150        N151   1.424       .  S
N151        O155   1.261       .  A
N151        O156   1.262       .  A
N154        O158   1.262   1_556  A
N154        O157   1.261       .  A
C159        C160   1.402       .  A
C159        C164   1.397       .  A
C159        H166   1.084       .  S
C160        C161   1.408       .  A
C161        C162   1.391       .  A
C161        N168   1.428       .  S
C162        C163   1.403       .  A
C162        H167   1.085       .  S
C163        C164   1.410       .  A
C164        N165   1.427       .  S
N165        O169   1.261       .  A
N165        O170   1.262       .  A
N168        O172   1.262       .  A
N168        O171   1.262       .  A
C173        C174   1.394   1_655  A
C173        C178   1.390       .  A
C173        H860   1.084       .  S
C174        C175   1.414       .  A
C175        C176   1.401       .  A
C175        N182   1.425       .  S
C176        C177   1.398       .  A
C176        H181   1.084       .  S
C177        C178   1.412   1_455  A
C178        N859   1.424       .  S
N179        C858   1.424       .  S
N179        O183   1.262   1_556  A
N179        O184   1.261       .  A
H180        C853   1.084       .  S
N182        O186   1.262       .  A
N182        O185   1.261       .  A
C187        C188   1.405   1_655  A
C187        C192   1.406       .  A
C187        H874   1.084       .  S
C188        C189   1.408       .  A
C189        C190   1.398       .  A
C189        N196   1.426       .  S
C190        C191   1.408       .  A
C190        H195   1.083       .  S
C191        C192   1.415   1_455  A
C192        N873   1.427       .  S
N193        C872   1.427       .  S
N193        O197   1.262       .  A
N193        O198   1.262       .  A
H194        C867   1.084       .  S
N196        O200   1.262       .  A
N196        O199   1.261       .  A
C201        C206   1.403       .  A
C201        C542   1.411   1_545  A
C201        H208   1.083       .  S
C202        C203   1.415       .  A
C202        C541   1.411       .  A
C203        C204   1.402       .  A
C203        N210   1.428       .  S
C204        C205   1.410       .  A
C204        H209   1.083       .  S
C205        C546   1.418       .  A
C206        C545   1.418       .  A
C206        N207   1.430       .  S
N207        O211   1.262       .  A
N207        O212   1.262       .  A
N210        O214   1.262       .  A
N210        O213   1.262       .  A
C215        C216   1.423       .  A
C215        C220   1.410       .  A
C215        H222   1.083       .  S
C216        C557   1.416       .  A
C217        C218   1.396       .  A
C217        C556   1.416       .  A
C217        N224   1.428       .  S
C218        C559   1.405   1_545  A
C218        H223   1.083       .  S
C219        C220   1.406       .  A
C219        C558   1.405       .  A
C220        N221   1.432       .  S
N221        O225   1.261       .  A
N221        O226   1.263       .  A
N224        O228   1.262       .  A
N224        O227   1.263       .  A
C229        C230   1.398       .  A
C229        C234   1.384       .  A
C229        H236   1.085       .  S
C230        C231   1.413       .  A
C231        C232   1.396       .  A
C231        N238   1.428       .  S
C232        C233   1.402       .  A
C232        H237   1.083       .  S
C233        C234   1.409       .  A
C234        N235   1.427       .  S
N235        O239   1.262       .  A
N235        O240   1.262       .  A
N238        O242   1.262       .  A
N238        O241   1.262       .  A
C243        C244   1.409       .  A
C243        C248   1.414       .  A
C243        H250   1.083       .  S
C244        C245   1.415       .  A
C245        C246   1.400       .  A
C245        N252   1.428       .  S
C246        C247   1.407       .  A
C246        H251   1.084       .  S
C247        C248   1.418       .  A
C248        N249   1.427       .  S
N249        O253   1.262       .  A
N249        O254   1.262       .  A
N252        O256   1.262       .  A
N252        O255   1.262       .  A
C257        C262   1.399       .  A
C257        C598   1.403       .  A
C257        H264   1.083       .  S
C258        C259   1.414       .  A
C258        C597   1.403       .  A
C259        C260   1.390       .  A
C259        N266   1.423       .  S
C260        C261   1.399       .  A
C260        H265   1.083       .  S
C261        C602   1.416       .  A
C261        N419   1.443       .  S
C262        C601   1.416       .  A
C262        N263   1.426       .  S
N263        O267   1.262       .  A
N263        O268   1.262       .  A
N266        O270   1.262       .  A
N266        O269   1.263       .  A
C271        C276   1.392       .  A
C271        C952   1.400       .  A
C271        H278   1.081       .  S
C272        C273   1.421       .  A
C272        C951   1.400   1_455  A
C272        N697   1.455       .  S
C273        C274   1.410       .  A
C273        N280   1.427       .  S
C274        C275   1.405       .  A
C274        H279   1.084       .  S
C275        C956   1.423   1_455  A
C276        C955   1.423       .  A
C276        N277   1.430       .  S
N277        O281   1.261       .  A
N277        O282   1.262       .  A
N280        O284   1.262       .  A
N280        O283   1.262       .  A
C285        C290   1.386       .  A
C285        C966   1.387       .  A
C285        H292   1.084       .  S
C286        C287   1.399       .  A
C286        C965   1.387       .  A
C287        C288   1.404       .  A
C287        N294   1.429       .  S
C288        C969   1.408       .  A
C288        H293   1.084       .  S
C289        C290   1.411       .  A
C289        C968   1.408   1_455  A
C290        N291   1.426       .  S
N291        O295   1.262       .  A
N291        O296   1.262   1_455  A
N294        O298   1.262       .  A
N294        O297   1.262       .  A
C299        C304   1.399   1_545  A
C299        C640   1.402   1_545  A
C299        H306   1.080       .  S
C300        C301   1.424       .  A
C300        C639   1.402       .  A
C301        C302   1.394       .  A
C301        N308   1.427       .  S
C302        C303   1.393       .  A
C302        H307   1.082       .  S
C303        C644   1.423       .  A
C304        C643   1.423       .  A
C304        N305   1.432       .  S
N305        O309   1.262   1_565  A
N305        O310   1.262       .  A
N308        O312   1.258       .  A
N308        O311   1.262       .  A
C313        C314   1.398       .  A
C313        C318   1.393       .  A
C313        H320   1.082       .  S
C314        C655   1.426       .  A
C315        C316   1.400       .  A
C315        C654   1.426   1_545  A
C315        N322   1.433       .  S
C316        C657   1.401   1_545  A
C316        H321   1.082       .  S
C317        C318   1.422       .  A
C317        C656   1.401       .  A
C318        N319   1.431       .  S
N319        O323   1.262       .  A
N319        O324   1.262       .  A
N322        O326   1.262       .  A
N322        O325   1.262       .  A
C327        C332   1.399       .  A
C327       C1348   1.402   1_545  A
C327        H334   1.083       .  S
C328        C329   1.411       .  A
C328       C1347   1.402   1_455  A
C328        N350   1.437       .  S
C329        C330   1.394       .  A
C329        N336   1.427       .  S
C330        C331   1.400       .  A
C330        H335   1.084       .  S
C331       C1352   1.414   1_455  A
C332       C1351   1.414       .  A
C332        N333   1.428       .  S
N333        O337   1.262       .  A
N333        O338   1.262       .  A
N336        O340   1.262       .  A
N336        O339   1.262       .  A
C341        C343   1.533       .  S
C341        C345   1.551       .  S
C341        C654   1.525       .  S
C342        C346   1.544       .  S
C342        C348   1.539       .  S
C342        C643   1.530       .  S
C343        C351   1.375       .  A
C343       C1026   1.393   1_455  A
C344        C355   1.366       .  A
C344       C1027   1.392   1_455  A
C345        C359   1.390       .  A
C345       C1028   1.393   1_455  A
C346       C1023   1.393       .  A
C346        C349   1.378       .  A
C347       C1024   1.392       .  A
C347        C353   1.371       .  A
C348       C1025   1.393       .  A
C348        C356   1.370       .  A
C349        H362   1.081       .  S
C349        N690   1.358       .  A
N350        C689   1.358   1_455  A
C351        H352   1.081       .  S
C353        H363   1.080       .  S
C353        N354   1.348       .  A
N354       C1035   1.349       .  A
N354        C626   1.415       .  S
C355        H361   1.081       .  S
C355       N1034   1.349       .  A
C356        H358   1.081       .  S
C356        N357   1.365       .  A
N357       C1039   1.363       .  A
N357       C1292   1.455       .  S
C359        H360   1.080       .  S
C359       N1037   1.363       .  A
C364        C366   1.533       .  S
C364        C367   1.526       .  S
C364        C657   1.528       .  S
C365        C369   1.536       .  S
C365        C370   1.523       .  S
C365        C640   1.528       .  S
C366        C374   1.371       .  A
C366        C369   1.390       .  A
C367        C378   1.371       .  A
C367        C370   1.384       .  A
C368        C382   1.386       .  A
C368        C371   1.401       .  A
C369        C372   1.379   1_565  A
C370        C376   1.368       .  A
C371        C379   1.389       .  A
C372        H385   1.080       .  S
C372        N373   1.359       .  A
N373        C374   1.361   1_545  A
N373        C598   1.442       .  S
C374        H375   1.082       .  S
C376        H386   1.081       .  S
C376        N377   1.353       .  A
N377        C378   1.355       .  A
N377        C573   1.428       .  S
C378        H384   1.081       .  S
C379        H381   1.081       .  S
C379        N380   1.363       .  A
N380        C382   1.362       .  A
N380        C584   1.456       .  S
C382        H383   1.080       .  S
C387        C389   1.528       .  S
C387        C390   1.533   1_545  S
C387        C556   1.547       .  S
C388       C1072   1.527       .  S
C388        C734   1.549       .  S
C388       C1073   1.545   1_545  S
C388        C545   1.545       .  S
C389        C397   1.369       .  A
C389        C392   1.387   1_455  A
C390        C401   1.380       .  A
C390        C393   1.389   1_455  A
C391        C405   1.388       .  A
C391        C394   1.427   1_455  A
C392       C1068   1.527       .  S
C392       C1075   1.379       .  A
C393       C1068   1.545   1_565  S
C393       C1079   1.377       .  A
C394        C728   1.549       .  S
C394       C1082   1.381       .  A
C395       C1072   1.379       .  A
C395        H408   1.082       .  S
C395       N1076   1.359       .  A
N396       C1075   1.359   1_455  A
N396        C397   1.359       .  A
N396        C671   1.437       .  S
C397        H398   1.083       .  S
C399       C1073   1.377       .  A
C399        H409   1.082       .  S
C399       N1080   1.357       .  A
N400       C1079   1.357   1_455  A
N400        C401   1.353       .  A
N400        C514   1.433       .  S
C401        H407   1.082       .  S
C402       C1074   1.381       .  A
C402        H404   1.080       .  S
C402       N1083   1.351       .  A
N403       C1082   1.351   1_455  A
N403        C405   1.355       .  A
N403        C528   1.444       .  S
C405        H406   1.077       .  S
C410        C412   1.524       .  S
C410        C414   1.556       .  S
C410        C559   1.529       .  S
C411        C415   1.528       .  S
C411        C417   1.559       .  S
C411        C542   1.541       .  S
C412        C420   1.380   1_565  A
C412        C415   1.376       .  A
C413        C424   1.376       .  A
C413        C416   1.385       .  A
C414        C428   1.390       .  A
C414        C417   1.428       .  A
C415        C418   1.370   1_565  A
C416        C422   1.376       .  A
C417        C425   1.388       .  A
C418        H431   1.082       .  S
C420        H421   1.081       .  S
C422        H432   1.082       .  S
C422        N423   1.356       .  A
N423        C424   1.353       .  A
N423        C500   1.431       .  S
C424        H430   1.081       .  S
C425        H427   1.081       .  S
C425        N426   1.358       .  A
N426        C428   1.354       .  A
N426        C489   1.451       .  S
C428        H429   1.082       .  S
O433       Ni439   1.900   1_554  S
O433        C454   1.262       .  A
O434       Ni457   1.947       .  S
O434        C443   1.275       .  A
O435       Ni439   1.884       .  S
O435      Ni1137   1.901   1_556  S
O435       Ni451   1.934   1_556  S
O435        H458   0.966       .  S
C436       O1133   1.283   1_455  A
C436        O445   1.279       .  A
C436        C629   1.464       .  S
O437       Ni456   1.895   1_556  S
O437        C443   1.262   1_556  A
O438       Ni456   1.900   1_556  S
O438        C440   1.267       .  A
Ni439       O442   1.913       .  S
Ni439       O444   1.887   1_556  S
C440       O1130   1.272   1_455  A
C440        C531   1.495       .  S
O441       Ni457   1.931   1_556  S
O441        C447   1.284       .  A
O442       C1127   1.279       .  A
C443        C469   1.468       .  S
O444       C1126   1.262       .  A
O445       Ni456   1.912       .  S
C446       O1124   1.262       .  A
C446        O452   1.281   1_655  A
C446        C615   1.498   1_655  S
C447       O1122   1.279   1_455  A
C447        C517   1.470       .  S
H448        O449   0.967       .  S
O449       Ni457   1.934       .  S
O449      Ni1131   1.895   1_455  S
O449       Ni456   1.883       .  S
O450       Ni451   1.945   1_556  S
O450       C1120   1.272       .  A
Ni451       O455   1.929       .  S
Ni451       O453   1.935       .  S
Ni451      O1129   1.895       .  S
O452       Ni457   1.957       .  S
O453       C1116   1.283       .  A
C454        O455   1.266       .  A
C454        C480   1.458       .  S
Ni457      O1115   1.901   1_454  S
O459       Ni465   1.896   1_556  S
O459        C480   1.262   1_556  A
O460       Ni483   1.933       .  S
O460        C469   1.269       .  A
O461       Ni465   1.873       .  S
O461       Ni483   1.895       .  S
O461       Ni477   1.926       .  S
O461        H484   0.976       .  S
C462        O479   1.281       .  A
C462        O471   1.281       .  A
C462        C503   1.470       .  S
O463       Ni482   1.909   1_554  S
O463        C469   1.266       .  A
O464       Ni482   1.904   1_554  S
O464        C466   1.269       .  A
Ni465       O468   1.898       .  S
Ni465       O470   1.900   1_554  S
C466        O476   1.277       .  A
C466        C587   1.505       .  S
O467       Ni483   1.924       .  S
O467        C473   1.279       .  A
O468        C473   1.282       .  A
O470        C472   1.262       .  A
O471       Ni482   1.913       .  S
C472        O478   1.279       .  A
C472        C486   1.498       .  S
C473        C570   1.463       .  S
H474        O475   0.994       .  S
O475       Ni483   1.923   1_556  S
O475       Ni477   1.905   1_556  S
O475       Ni482   1.879       .  S
O476       Ni477   1.963       .  S
Ni477       O481   1.935       .  S
Ni477       O479   1.926   1_554  S
O478       Ni483   1.950   1_556  S
C480        O481   1.270       .  A
C485        C486   1.401       .  A
C485        C490   1.405       .  A
C485        H492   1.084       .  S
C486        C487   1.424       .  A
C487        C488   1.403       .  A
C487        N494   1.429       .  S
C488        C489   1.400       .  A
C488        H493   1.083       .  S
C489        C490   1.416       .  A
C490        N491   1.424       .  S
N491        O495   1.261       .  A
N491        O496   1.262       .  A
N494        O498   1.262   1_556  A
N494        O497   1.261       .  A
C499        C500   1.402       .  A
C499        C504   1.397       .  A
C499        H506   1.084       .  S
C500        C501   1.408       .  A
C501        C502   1.391       .  A
C501        N508   1.428       .  S
C502        C503   1.403       .  A
C502        H507   1.085       .  S
C503        C504   1.410       .  A
C504        N505   1.427       .  S
N505        O509   1.261       .  A
N505        O510   1.262       .  A
N508        O512   1.262       .  A
N508        O511   1.262       .  A
C513        C514   1.394   1_655  A
C513        C518   1.390       .  A
C513       H1200   1.084       .  S
C514        C515   1.414       .  A
C515        C516   1.401       .  A
C515        N522   1.425       .  S
C516        C517   1.398       .  A
C516        H521   1.084       .  S
C517        C518   1.412   1_455  A
C518       N1199   1.424       .  S
N519       C1198   1.424       .  S
N519        O523   1.262   1_556  A
N519        O524   1.261       .  A
H520       C1193   1.084       .  S
N522        O526   1.262       .  A
N522        O525   1.261       .  A
C527        C528   1.405   1_655  A
C527        C532   1.406       .  A
C527       H1214   1.084       .  S
C528        C529   1.408       .  A
C529        C530   1.398       .  A
C529        N536   1.426       .  S
C530        C531   1.408       .  A
C530        H535   1.083       .  S
C531        C532   1.415   1_455  A
C532       N1213   1.427       .  S
N533       C1212   1.427       .  S
N533        O537   1.262       .  A
N533        O538   1.262       .  A
H534       C1207   1.084       .  S
N536        O540   1.262       .  A
N536        O539   1.261       .  A
C541        C546   1.403       .  A
C541        H548   1.083       .  S
C542        C543   1.415       .  A
C543        C544   1.402       .  A
C543        N550   1.428       .  S
C544        C545   1.410   1_565  A
C544        H549   1.083       .  S
C546        N547   1.430       .  S
N547        O551   1.262       .  A
N547        O552   1.262       .  A
N550        O554   1.262       .  A
N550        O553   1.262       .  A
C555        C556   1.423   1_565  A
C555        C560   1.410       .  A
C555        H562   1.083       .  S
C557        C558   1.396       .  A
C557        N564   1.428       .  S
C558        H563   1.083       .  S
C559        C560   1.406       .  A
C560        N561   1.432       .  S
N561        O565   1.261       .  A
N561        O566   1.263       .  A
N564        O568   1.262       .  A
N564        O567   1.263       .  A
C569        C570   1.398       .  A
C569        C574   1.384       .  A
C569        H576   1.085       .  S
C570        C571   1.413       .  A
C571        C572   1.396       .  A
C571        N578   1.428       .  S
C572        C573   1.402       .  A
C572        H577   1.083       .  S
C573        C574   1.409       .  A
C574        N575   1.427       .  S
N575        O579   1.262       .  A
N575        O580   1.262       .  A
N578        O582   1.262       .  A
N578        O581   1.262       .  A
C583        C584   1.409       .  A
C583        C588   1.414       .  A
C583        H590   1.083       .  S
C584        C585   1.415       .  A
C585        C586   1.400       .  A
C585        N592   1.428       .  S
C586        C587   1.407       .  A
C586        H591   1.084       .  S
C587        C588   1.418       .  A
C588        N589   1.427       .  S
N589        O593   1.262       .  A
N589        O594   1.262       .  A
N592        O596   1.262       .  A
N592        O595   1.262       .  A
C597        C602   1.399       .  A
C597        H604   1.083       .  S
C598        C599   1.414   1_545  A
C599        C600   1.390       .  A
C599        N606   1.423       .  S
C600        C601   1.399   1_565  A
C600        H605   1.083       .  S
C602        N603   1.426       .  S
N603        O607   1.262       .  A
N603        O608   1.262       .  A
N606        O610   1.262       .  A
N606        O609   1.263       .  A
C611       C1292   1.400       .  A
C611        C616   1.392       .  A
C611        H618   1.081       .  S
C612       C1291   1.400   1_455  A
C612        C613   1.421       .  A
C612       N1037   1.455       .  S
C613        C614   1.410       .  A
C613        N620   1.427       .  S
C614        C615   1.405       .  A
C614        H619   1.084       .  S
C615       C1296   1.423   1_455  A
C616       C1295   1.423       .  A
C616        N617   1.430       .  S
N617        O621   1.261       .  A
N617        O622   1.262       .  A
N620        O624   1.262       .  A
N620        O623   1.262       .  A
C625       C1306   1.387       .  A
C625        C630   1.386       .  A
C625        H632   1.084       .  S
C626       C1305   1.387       .  A
C626        C627   1.399       .  A
C627        C628   1.404       .  A
C627        N634   1.429       .  S
C628       C1309   1.408       .  A
C628        H633   1.084       .  S
C629       C1308   1.408   1_455  A
C629        C630   1.411       .  A
C630        N631   1.426       .  S
N631        O635   1.262       .  A
N631        O636   1.262   1_455  A
N634        O638   1.262       .  A
N634        O637   1.262       .  A
C639        C644   1.399       .  A
C639        H646   1.080       .  S
C640        C641   1.424       .  A
C641        C642   1.394       .  A
C641        N648   1.427       .  S
C642        C643   1.393       .  A
C642        H647   1.082       .  S
C644        N645   1.432       .  S
N645        O649   1.262       .  A
N645        O650   1.262       .  A
N648        O652   1.258       .  A
N648        O651   1.262       .  A
C653        C654   1.398       .  A
C653        C658   1.393       .  A
C653        H660   1.082       .  S
C655        C656   1.400       .  A
C655        N662   1.433       .  S
C656        H661   1.082       .  S
C657        C658   1.422       .  A
C658        N659   1.431       .  S
N659        O663   1.262       .  A
N659        O664   1.262       .  A
N662        O666   1.262       .  A
N662        O665   1.262       .  A
C667       C1008   1.402       .  A
C667        C672   1.399       .  A
C667        H674   1.083       .  S
C668       C1007   1.402   1_465  A
C668        C669   1.411       .  A
C669        C670   1.394       .  A
C669        N676   1.427       .  S
C670        C671   1.400   1_565  A
C670        H675   1.084       .  S
C671       C1012   1.414   1_455  A
C672       C1011   1.414       .  A
C672        N673   1.428       .  S
N673        O677   1.262       .  A
N673        O678   1.262       .  A
N676        O680   1.262       .  A
N676        O679   1.262       .  A
C681        C683   1.533       .  S
C681        C685   1.551       .  S
C681       C1024   1.526       .  S
C681        C994   1.525       .  S
C682        C686   1.544       .  S
C682        C688   1.539       .  S
C682       C1027   1.529       .  S
C682        C983   1.530       .  S
C683        C691   1.375       .  A
C684       C1021   1.526   1_545  S
C684        C695   1.366       .  A
C685        C699   1.390       .  A
C686        C689   1.378       .  A
C687       C1022   1.529   1_545  S
C687        C693   1.371       .  A
C688        C696   1.370       .  A
C689        H702   1.081       .  S
N690       C1031   1.357       .  A
N690       C1348   1.437       .  S
C691        H692   1.081       .  S
C691       N1030   1.357       .  A
C693        H703   1.080       .  S
C693        N694   1.348   1_655  A
N694        C966   1.415       .  S
C695        H701   1.081       .  S
C696        H698   1.081       .  S
C696        N697   1.365   1_655  A
C699        H700   1.080       .  S
C704        C706   1.533       .  S
C704       C1048   1.555       .  S
C704        C707   1.526       .  S
C704        C997   1.528       .  S
C705        C709   1.536       .  S
C705       C1051   1.562       .  S
C705        C710   1.523       .  S
C705        C980   1.528       .  S
C706        C714   1.371       .  A
C706        C709   1.390       .  A
C707        C718   1.371       .  A
C707        C710   1.384       .  A
C708       C1044   1.555   1_545  S
C708        C722   1.386       .  A
C708        C711   1.401       .  A
C709        C712   1.379       .  A
C710        C716   1.368       .  A
C711       C1045   1.562   1_545  S
C711        C719   1.389       .  A
C712        H725   1.080       .  S
C712        N713   1.359       .  A
N713        C714   1.361       .  A
N713        C938   1.442       .  S
C714        H715   1.082       .  S
C716        H726   1.081       .  S
C716        N717   1.353       .  A
N717        C718   1.355       .  A
N717        C913   1.428       .  S
C718        H724   1.081       .  S
C719        H721   1.081       .  S
C719        N720   1.363       .  A
N720        C722   1.362       .  A
N720        C924   1.456       .  S
C722        H723   1.080       .  S
C727        C729   1.528       .  S
C727       C1071   1.559       .  S
C727        C730   1.533       .  S
C727        C896   1.547       .  S
C728        C885   1.545       .  S
C729        C737   1.369       .  A
C729        C732   1.387       .  A
C730        C741   1.380       .  A
C730        C733   1.389       .  A
C731       C1067   1.559       .  S
C731        C745   1.388       .  A
C731        C734   1.427       .  A
C735        H748   1.082       .  S
N736        C737   1.359       .  A
N736       C1011   1.437       .  S
C737        H738   1.083       .  S
C739        H749   1.082       .  S
N740        C741   1.353       .  A
N740        C854   1.433       .  S
C741        H747   1.082       .  S
C742        H744   1.080       .  S
N743        C745   1.355       .  A
N743        C868   1.444       .  S
C745        H746   1.077       .  S
C750        C752   1.524       .  S
C750        C754   1.556       .  S
C750       C1093   1.535       .  S
C750        C899   1.529       .  S
C751        C755   1.528       .  S
C751        C757   1.559       .  S
C751       C1096   1.537       .  S
C751        C882   1.541       .  S
C752        C760   1.380       .  A
C752        C755   1.376       .  A
C753       C1090   1.535   1_545  S
C753        C764   1.376       .  A
C753        C756   1.385       .  A
C754        C768   1.390       .  A
C754        C757   1.428       .  A
C755        C758   1.370       .  A
C756       C1091   1.537   1_545  S
C756        C762   1.376       .  A
C757        C765   1.388       .  A
C758        H771   1.082       .  S
C758       N1099   1.362       .  A
N759       C1098   1.362       .  A
N759       C1100   1.359       .  A
N759       C1281   1.443       .  S
C760        H761   1.081       .  S
C760       N1099   1.359       .  A
C762        H772   1.082       .  S
C762        N763   1.356       .  A
N763        C764   1.353       .  A
N763        C840   1.431       .  S
C764        H770   1.081       .  S
C765        H767   1.081       .  S
C765        N766   1.358       .  A
N766        C768   1.354       .  A
N766        C829   1.451       .  S
C768        H769   1.082       .  S
O773       Ni779   1.900   1_554  S
O773        C794   1.262       .  A
O774       Ni797   1.947       .  S
O774        C783   1.275       .  A
O775       Ni779   1.884       .  S
O775       Ni791   1.934   1_556  S
O775        H798   0.966       .  S
C776        O785   1.279       .  A
C776        C969   1.464       .  S
O777       Ni796   1.895   1_556  S
O777        C783   1.262   1_556  A
O778       Ni796   1.900   1_556  S
O778        C780   1.267       .  A
Ni779       O782   1.913       .  S
Ni779       O784   1.887   1_556  S
C780        C871   1.495       .  S
O781       Ni797   1.931   1_556  S
O781        C787   1.284       .  A
C783        C809   1.468       .  S
O785       Ni796   1.912       .  S
C786        O792   1.281       .  A
C786        C955   1.498       .  S
C787        C857   1.470       .  S
H788        O789   0.967       .  S
O789       Ni797   1.934       .  S
O789       Ni796   1.883       .  S
O790       Ni791   1.945   1_556  S
Ni791       O795   1.929       .  S
Ni791       O793   1.935       .  S
O792       Ni797   1.957       .  S
C794        O795   1.266       .  A
C794        C820   1.458       .  S
O799       Ni805   1.896   1_556  S
O799        C820   1.262   1_556  A
O800       Ni823   1.933       .  S
O800        C809   1.269       .  A
O801       Ni805   1.873       .  S
O801       Ni823   1.895       .  S
O801       Ni817   1.926       .  S
O801        H824   0.976       .  S
C802        O819   1.281       .  A
C802        O811   1.281       .  A
C802        C843   1.470       .  S
O803       Ni822   1.909   1_554  S
O803        C809   1.266       .  A
O804       Ni822   1.904   1_554  S
O804        C806   1.269       .  A
Ni805       O808   1.898       .  S
Ni805       O810   1.900   1_554  S
C806        O816   1.277       .  A
C806        C927   1.505       .  S
O807       Ni823   1.924       .  S
O807        C813   1.279       .  A
O808        C813   1.282       .  A
O810        C812   1.262       .  A
O811       Ni822   1.913       .  S
C812        O818   1.279       .  A
C812        C826   1.498       .  S
C813        C910   1.463       .  S
H814        O815   0.995       .  S
O815       Ni823   1.923   1_556  S
O815       Ni817   1.905   1_556  S
O815       Ni822   1.879       .  S
O816       Ni817   1.963       .  S
Ni817       O821   1.935       .  S
Ni817       O819   1.926   1_554  S
O818       Ni823   1.950   1_556  S
C820        O821   1.270       .  A
C825        C826   1.401       .  A
C825        C830   1.405       .  A
C825        H832   1.084       .  S
C826        C827   1.424       .  A
C827        C828   1.403       .  A
C827        N834   1.429       .  S
C828        C829   1.400       .  A
C828        H833   1.083       .  S
C829        C830   1.416       .  A
C830        N831   1.424       .  S
N831        O835   1.261       .  A
N831        O836   1.262       .  A
N834        O838   1.262   1_556  A
N834        O837   1.261       .  A
C839        C840   1.402       .  A
C839        C844   1.397       .  A
C839        H846   1.084       .  S
C840        C841   1.408       .  A
C841        C842   1.391       .  A
C841        N848   1.428       .  S
C842        C843   1.403       .  A
C842        H847   1.085       .  S
C843        C844   1.410       .  A
C844        N845   1.427       .  S
N845        O849   1.261       .  A
N845        O850   1.262       .  A
N848        O852   1.262       .  A
N848        O851   1.262       .  A
C853        C854   1.394       .  A
C853        C858   1.390       .  A
C854        C855   1.414       .  A
C855        C856   1.401       .  A
C855        N862   1.425       .  S
C856        C857   1.398       .  A
C856        H861   1.084       .  S
C857        C858   1.412       .  A
N859        O863   1.262   1_556  A
N859        O864   1.261       .  A
N862        O866   1.262       .  A
N862        O865   1.261       .  A
C867        C868   1.405       .  A
C867        C872   1.406       .  A
C868        C869   1.408       .  A
C869        C870   1.398       .  A
C869        N876   1.426       .  S
C870        C871   1.408       .  A
C870        H875   1.083       .  S
C871        C872   1.415       .  A
N873        O877   1.262       .  A
N873        O878   1.262       .  A
N876        O880   1.262       .  A
N876        O879   1.261       .  A
C881       C1222   1.411   1_545  A
C881        C886   1.403       .  A
C881        H888   1.083       .  S
C882       C1221   1.411       .  A
C882        C883   1.415       .  A
C883        C884   1.402       .  A
C883        N890   1.428       .  S
C884        C885   1.410       .  A
C884        H889   1.083       .  S
C885       C1226   1.418       .  A
C886       C1225   1.418       .  A
C886        N887   1.430       .  S
N887        O891   1.262       .  A
N887        O892   1.262       .  A
N890        O894   1.262       .  A
N890        O893   1.262       .  A
C895        C896   1.423       .  A
C895        C900   1.410       .  A
C895        H902   1.083       .  S
C896       C1237   1.416       .  A
C897       C1236   1.416       .  A
C897        C898   1.396       .  A
C897        N904   1.428       .  S
C898       C1239   1.405   1_545  A
C898        H903   1.083       .  S
C899       C1238   1.405       .  A
C899        C900   1.406       .  A
C900        N901   1.432       .  S
N901        O905   1.261       .  A
N901        O906   1.263       .  A
N904        O908   1.262       .  A
N904        O907   1.263       .  A
C909        C910   1.398       .  A
C909        C914   1.384       .  A
C909        H916   1.085       .  S
C910        C911   1.413       .  A
C911        C912   1.396       .  A
C911        N918   1.428       .  S
C912        C913   1.402       .  A
C912        H917   1.083       .  S
C913        C914   1.409       .  A
C914        N915   1.427       .  S
N915        O919   1.262       .  A
N915        O920   1.262       .  A
N918        O922   1.262       .  A
N918        O921   1.262       .  A
C923        C924   1.409       .  A
C923        C928   1.414       .  A
C923        H930   1.083       .  S
C924        C925   1.415       .  A
C925        C926   1.400       .  A
C925        N932   1.428       .  S
C926        C927   1.407       .  A
C926        H931   1.084       .  S
C927        C928   1.418       .  A
C928        N929   1.427       .  S
N929        O933   1.262       .  A
N929        O934   1.262       .  A
N932        O936   1.262       .  A
N932        O935   1.262       .  A
C937       C1278   1.403       .  A
C937        C942   1.399       .  A
C937        H944   1.083       .  S
C938       C1277   1.403       .  A
C938        C939   1.414       .  A
C939        C940   1.390       .  A
C939        N946   1.423       .  S
C940        C941   1.399       .  A
C940        H945   1.083       .  S
C941       C1282   1.416       .  A
C941       N1099   1.443       .  S
C942       C1281   1.416       .  A
C942        N943   1.426       .  S
N943        O947   1.262       .  A
N943        O948   1.262       .  A
N946        O950   1.262       .  A
N946        O949   1.263       .  A
C951        C956   1.392       .  A
C951        H958   1.081       .  S
C952        C953   1.421       .  A
C953        C954   1.410       .  A
C953        N960   1.427       .  S
C954        C955   1.405       .  A
C954        H959   1.084       .  S
C956        N957   1.430       .  S
N957        O961   1.261       .  A
N957        O962   1.262       .  A
N960        O964   1.262       .  A
N960        O963   1.262       .  A
C965        C970   1.386       .  A
C965        H972   1.084       .  S
C966        C967   1.399   1_455  A
C967        C968   1.404       .  A
C967        N974   1.429       .  S
C968        H973   1.084       .  S
C969        C970   1.411       .  A
C970        N971   1.426       .  S
N971        O975   1.262       .  A
N971        O976   1.262       .  A
N974        O978   1.262       .  A
N974        O977   1.262   1_655  A
C979       C1320   1.402   1_545  A
C979        C984   1.399   1_545  A
C979        H986   1.080       .  S
C980       C1319   1.402       .  A
C980        C981   1.424       .  A
C981        C982   1.394       .  A
C981        N988   1.427       .  S
C982        C983   1.393       .  A
C982        H987   1.082       .  S
C983       C1324   1.423       .  A
C984       C1323   1.423       .  A
C984        N985   1.432       .  S
N985        O989   1.262   1_565  A
N985        O990   1.262       .  A
N988        O992   1.258       .  A
N988        O991   1.262       .  A
C993        C994   1.398       .  A
C993        C998   1.393       .  A
C993       H1000   1.082       .  S
C994       C1335   1.426       .  A
C995       C1334   1.426   1_545  A
C995        C996   1.400       .  A
C995       N1002   1.433       .  S
C996       C1337   1.401   1_545  A
C996       H1001   1.082       .  S
C997       C1336   1.401       .  A
C997        C998   1.422       .  A
C998        N999   1.431       .  S
N999       O1003   1.262       .  A
N999       O1004   1.262       .  A
N1002      O1006   1.262       .  A
N1002      O1005   1.262       .  A
C1007      C1012   1.399       .  A
C1007      H1014   1.083       .  S
C1008      C1009   1.411       .  A
C1008      N1030   1.437       .  S
C1009      C1010   1.394       .  A
C1009      N1016   1.427       .  S
C1010      C1011   1.400       .  A
C1010      H1015   1.084       .  S
C1012      N1013   1.428       .  S
N1013      O1017   1.262       .  A
N1013      O1018   1.262       .  A
N1016      O1020   1.262       .  A
N1016      O1019   1.262       .  A
C1021      C1023   1.533       .  S
C1021      C1025   1.551       .  S
C1021      C1334   1.525       .  S
C1022      C1026   1.544       .  S
C1022      C1028   1.539       .  S
C1022      C1323   1.530       .  S
C1023      C1031   1.375       .  A
C1024      C1035   1.366       .  A
C1025      C1039   1.390       .  A
C1026      C1029   1.378       .  A
C1027      C1033   1.371       .  A
C1028      C1036   1.370       .  A
C1029      H1042   1.081       .  S
C1031      H1032   1.081       .  S
C1033      H1043   1.080       .  S
C1033      N1034   1.348   1_655  A
N1034      C1306   1.415       .  S
C1035      H1041   1.081       .  S
C1036      H1038   1.081       .  S
C1036      N1037   1.365   1_655  A
C1039      H1040   1.080       .  S
C1044      C1046   1.533       .  S
C1044      C1047   1.526       .  S
C1044      C1337   1.528       .  S
C1045      C1049   1.536       .  S
C1045      C1050   1.523       .  S
C1045      C1320   1.528       .  S
C1046      C1054   1.371       .  A
C1046      C1049   1.390       .  A
C1047      C1058   1.371       .  A
C1047      C1050   1.384       .  A
C1048      C1062   1.386       .  A
C1048      C1051   1.401       .  A
C1049      C1052   1.379   1_565  A
C1050      C1056   1.368       .  A
C1051      C1059   1.389       .  A
C1052      H1065   1.080       .  S
C1052      N1053   1.359       .  A
N1053      C1054   1.361   1_545  A
N1053      C1278   1.442       .  S
C1054      H1055   1.082       .  S
C1056      H1066   1.081       .  S
C1056      N1057   1.353       .  A
N1057      C1058   1.355       .  A
N1057      C1253   1.428       .  S
C1058      H1064   1.081       .  S
C1059      H1061   1.081       .  S
C1059      N1060   1.363       .  A
N1060      C1062   1.362       .  A
N1060      C1264   1.456       .  S
C1062      H1063   1.080       .  S
C1067      C1069   1.528       .  S
C1067      C1070   1.533   1_545  S
C1067      C1236   1.547       .  S
C1068      C1225   1.545       .  S
C1069      C1077   1.369       .  A
C1069      C1072   1.387       .  A
C1070      C1081   1.380       .  A
C1070      C1073   1.389       .  A
C1071      C1085   1.388       .  A
C1071      C1074   1.427       .  A
C1075      H1088   1.082       .  S
N1076      C1077   1.359       .  A
N1076      C1351   1.437       .  S
C1077      H1078   1.083       .  S
C1079      H1089   1.082       .  S
N1080      C1081   1.353       .  A
N1080      C1194   1.433       .  S
C1081      H1087   1.082       .  S
C1082      H1084   1.080       .  S
N1083      C1085   1.355       .  A
N1083      C1208   1.444       .  S
C1085      H1086   1.077       .  S
C1090      C1092   1.524       .  S
C1090      C1094   1.556       .  S
C1090      C1239   1.529       .  S
C1091      C1095   1.528       .  S
C1091      C1097   1.559       .  S
C1091      C1222   1.541       .  S
C1092      C1100   1.380   1_565  A
C1092      C1095   1.376       .  A
C1093      C1104   1.376       .  A
C1093      C1096   1.385       .  A
C1094      C1108   1.390       .  A
C1094      C1097   1.428       .  A
C1095      C1098   1.370   1_565  A
C1096      C1102   1.376       .  A
C1097      C1105   1.388       .  A
C1098      H1111   1.082       .  S
C1100      H1101   1.081       .  S
C1102      H1112   1.082       .  S
C1102      N1103   1.356       .  A
N1103      C1104   1.353       .  A
N1103      C1180   1.431       .  S
C1104      H1110   1.081       .  S
C1105      H1107   1.081       .  S
C1105      N1106   1.358       .  A
N1106      C1108   1.354       .  A
N1106      C1169   1.451       .  S
C1108      H1109   1.082       .  S
O1113     Ni1119   1.900   1_554  S
O1113      C1134   1.262       .  A
O1114     Ni1137   1.947       .  S
O1114      C1123   1.275       .  A
O1115     Ni1119   1.884       .  S
O1115     Ni1131   1.934   1_556  S
O1115      H1138   0.966       .  S
C1116      O1125   1.279       .  A
C1116      C1309   1.464       .  S
O1117     Ni1136   1.895   1_556  S
O1117      C1123   1.262   1_556  A
O1118     Ni1136   1.900   1_556  S
O1118      C1120   1.267       .  A
Ni1119     O1122   1.913       .  S
Ni1119     O1124   1.887   1_556  S
C1120      C1211   1.495       .  S
O1121     Ni1137   1.931   1_556  S
O1121      C1127   1.284       .  A
C1123      C1149   1.468       .  S
O1125     Ni1136   1.912       .  S
C1126      O1132   1.281       .  A
C1126      C1295   1.498       .  S
C1127      C1197   1.470       .  S
H1128      O1129   0.967       .  S
O1129     Ni1137   1.934       .  S
O1129     Ni1136   1.883       .  S
O1130     Ni1131   1.945   1_556  S
Ni1131     O1135   1.929       .  S
Ni1131     O1133   1.935       .  S
O1132     Ni1137   1.957       .  S
C1134      O1135   1.266       .  A
C1134      C1160   1.458       .  S
O1139     Ni1145   1.896   1_556  S
O1139      C1160   1.262   1_556  A
O1140     Ni1163   1.933       .  S
O1140      C1149   1.269       .  A
O1141     Ni1145   1.873       .  S
O1141     Ni1163   1.895       .  S
O1141     Ni1157   1.926       .  S
O1141      H1164   0.976       .  S
C1142      O1159   1.281       .  A
C1142      O1151   1.281       .  A
C1142      C1183   1.470       .  S
O1143     Ni1162   1.909   1_554  S
O1143      C1149   1.266       .  A
O1144     Ni1162   1.904   1_554  S
O1144      C1146   1.269       .  A
Ni1145     O1148   1.898       .  S
Ni1145     O1150   1.900   1_554  S
C1146      O1156   1.277       .  A
C1146      C1267   1.505       .  S
O1147     Ni1163   1.924       .  S
O1147      C1153   1.279       .  A
O1148      C1153   1.282       .  A
O1150      C1152   1.262       .  A
O1151     Ni1162   1.913       .  S
C1152      O1158   1.279       .  A
C1152      C1166   1.498       .  S
C1153      C1250   1.463       .  S
H1154      O1155   0.994       .  S
O1155     Ni1163   1.923   1_556  S
O1155     Ni1157   1.905   1_556  S
O1155     Ni1162   1.879       .  S
O1156     Ni1157   1.963       .  S
Ni1157     O1161   1.935       .  S
Ni1157     O1159   1.926   1_554  S
O1158     Ni1163   1.950   1_556  S
C1160      O1161   1.270       .  A
C1165      C1166   1.401       .  A
C1165      C1170   1.405       .  A
C1165      H1172   1.084       .  S
C1166      C1167   1.424       .  A
C1167      C1168   1.403       .  A
C1167      N1174   1.429       .  S
C1168      C1169   1.400       .  A
C1168      H1173   1.083       .  S
C1169      C1170   1.416       .  A
C1170      N1171   1.424       .  S
N1171      O1175   1.261       .  A
N1171      O1176   1.262       .  A
N1174      O1178   1.262   1_556  A
N1174      O1177   1.261       .  A
C1179      C1180   1.402       .  A
C1179      C1184   1.397       .  A
C1179      H1186   1.084       .  S
C1180      C1181   1.408       .  A
C1181      C1182   1.391       .  A
C1181      N1188   1.428       .  S
C1182      C1183   1.403       .  A
C1182      H1187   1.085       .  S
C1183      C1184   1.410       .  A
C1184      N1185   1.427       .  S
N1185      O1189   1.261       .  A
N1185      O1190   1.262       .  A
N1188      O1192   1.262       .  A
N1188      O1191   1.262       .  A
C1193      C1194   1.394       .  A
C1193      C1198   1.390       .  A
C1194      C1195   1.414       .  A
C1195      C1196   1.401       .  A
C1195      N1202   1.425       .  S
C1196      C1197   1.398       .  A
C1196      H1201   1.084       .  S
C1197      C1198   1.412       .  A
N1199      O1203   1.262   1_556  A
N1199      O1204   1.261       .  A
N1202      O1206   1.262       .  A
N1202      O1205   1.261       .  A
C1207      C1208   1.405       .  A
C1207      C1212   1.406       .  A
C1208      C1209   1.408       .  A
C1209      C1210   1.398       .  A
C1209      N1216   1.426       .  S
C1210      C1211   1.408       .  A
C1210      H1215   1.083       .  S
C1211      C1212   1.415       .  A
N1213      O1217   1.262       .  A
N1213      O1218   1.262       .  A
N1216      O1220   1.262       .  A
N1216      O1219   1.261       .  A
C1221      C1226   1.403       .  A
C1221      H1228   1.083       .  S
C1222      C1223   1.415       .  A
C1223      C1224   1.402       .  A
C1223      N1230   1.428       .  S
C1224      C1225   1.410   1_565  A
C1224      H1229   1.083       .  S
C1226      N1227   1.430       .  S
N1227      O1231   1.262       .  A
N1227      O1232   1.262       .  A
N1230      O1234   1.262       .  A
N1230      O1233   1.262       .  A
C1235      C1236   1.423   1_565  A
C1235      C1240   1.410       .  A
C1235      H1242   1.083       .  S
C1237      C1238   1.396       .  A
C1237      N1244   1.428       .  S
C1238      H1243   1.083       .  S
C1239      C1240   1.406       .  A
C1240      N1241   1.432       .  S
N1241      O1245   1.261       .  A
N1241      O1246   1.263       .  A
N1244      O1248   1.262       .  A
N1244      O1247   1.263       .  A
C1249      C1250   1.398       .  A
C1249      C1254   1.384       .  A
C1249      H1256   1.085       .  S
C1250      C1251   1.413       .  A
C1251      C1252   1.396       .  A
C1251      N1258   1.428       .  S
C1252      C1253   1.402       .  A
C1252      H1257   1.083       .  S
C1253      C1254   1.409       .  A
C1254      N1255   1.427       .  S
N1255      O1259   1.262       .  A
N1255      O1260   1.262       .  A
N1258      O1262   1.262       .  A
N1258      O1261   1.262       .  A
C1263      C1264   1.409       .  A
C1263      C1268   1.414       .  A
C1263      H1270   1.083       .  S
C1264      C1265   1.415       .  A
C1265      C1266   1.400       .  A
C1265      N1272   1.428       .  S
C1266      C1267   1.407       .  A
C1266      H1271   1.084       .  S
C1267      C1268   1.418       .  A
C1268      N1269   1.427       .  S
N1269      O1273   1.262       .  A
N1269      O1274   1.262       .  A
N1272      O1276   1.262       .  A
N1272      O1275   1.262       .  A
C1277      C1282   1.399       .  A
C1277      H1284   1.083       .  S
C1278      C1279   1.414   1_545  A
C1279      C1280   1.390       .  A
C1279      N1286   1.423       .  S
C1280      C1281   1.399   1_565  A
C1280      H1285   1.083       .  S
C1282      N1283   1.426       .  S
N1283      O1287   1.262       .  A
N1283      O1288   1.262       .  A
N1286      O1290   1.262       .  A
N1286      O1289   1.263       .  A
C1291      C1296   1.392       .  A
C1291      H1298   1.081       .  S
C1292      C1293   1.421       .  A
C1293      C1294   1.410       .  A
C1293      N1300   1.427       .  S
C1294      C1295   1.405       .  A
C1294      H1299   1.084       .  S
C1296      N1297   1.430       .  S
N1297      O1301   1.261       .  A
N1297      O1302   1.262       .  A
N1300      O1304   1.262       .  A
N1300      O1303   1.262       .  A
C1305      C1310   1.386       .  A
C1305      H1312   1.084       .  S
C1306      C1307   1.399   1_455  A
C1307      C1308   1.404       .  A
C1307      N1314   1.429       .  S
C1308      H1313   1.084       .  S
C1309      C1310   1.411       .  A
C1310      N1311   1.426       .  S
N1311      O1315   1.262       .  A
N1311      O1316   1.262       .  A
N1314      O1318   1.262       .  A
N1314      O1317   1.262   1_655  A
C1319      C1324   1.399       .  A
C1319      H1326   1.080       .  S
C1320      C1321   1.424       .  A
C1321      C1322   1.394       .  A
C1321      N1328   1.427       .  S
C1322      C1323   1.393       .  A
C1322      H1327   1.082       .  S
C1324      N1325   1.432       .  S
N1325      O1329   1.262       .  A
N1325      O1330   1.262       .  A
N1328      O1332   1.258       .  A
N1328      O1331   1.262       .  A
C1333      C1334   1.398       .  A
C1333      C1338   1.393       .  A
C1333      H1340   1.082       .  S
C1335      C1336   1.400       .  A
C1335      N1342   1.433       .  S
C1336      H1341   1.082       .  S
C1337      C1338   1.422       .  A
C1338      N1339   1.431       .  S
N1339      O1343   1.262       .  A
N1339      O1344   1.262       .  A
N1342      O1346   1.262       .  A
N1342      O1345   1.262       .  A
C1347      C1352   1.399       .  A
C1347      H1354   1.083       .  S
C1348      C1349   1.411       .  A
C1349      C1350   1.394       .  A
C1349      N1356   1.427       .  S
C1350      C1351   1.400   1_565  A
C1350      H1355   1.084       .  S
C1352      N1353   1.428       .  S
N1353      O1357   1.262       .  A
N1353      O1358   1.262       .  A
N1356      O1360   1.262       .  A
N1356      O1359   1.262       .  A
