geometry optimzed in LAMMPS
_audit_creation_date              2020-11-30 
_audit_creation_method            'lammps2cif' 
_symmetry_space_group_name_H-M    'P1' 
_symmetry_Int_Tables_number       1 
_symmetry_cell_setting            triclinic 
loop_ 
_symmetry_equiv_pos_as_xyz 
  x,y,z 
_cell_length_a                    36.91417839 
_cell_length_b                    40.16644128314334 
_cell_length_c                    35.83149521845861 
_cell_angle_alpha                 90.00322997078825 
_cell_angle_beta                  89.97508036536351 
_cell_angle_gamma                 89.83800990801362 
loop_ 
_atom_site_label 
_atom_site_type_symbol 
_atom_site_fract_x 
_atom_site_fract_y 
_atom_site_fract_z 
_atom_site_charge 
C1          C  0.95790008  0.07027712  0.08078606     0.04900
C2          C  0.98042800  0.04982495  0.05884471    -0.11200
C3          C  0.01750861  0.04730755  0.06642120     0.02400
C4          C  0.03068960  0.06281547  0.09854139    -0.09800
C5          C  0.01106428  0.08898175  0.11491912     0.04900
C6          C  0.97358049  0.09126451  0.10784481    -0.09200
H7          H  0.96926379  0.03699561  0.03484637     0.10500
H8          H  0.05802523  0.05802260  0.10781550     0.08000
H9          H  0.95738351  0.11033588  0.12128027     0.07900
O10         O  0.78481766  0.42931823  0.09323913    -0.76700
C11         C  0.77094178  0.39155455  0.97377439     0.84300
O12         O  0.90019814  0.42983670  0.02967268    -0.77800
O13         O  0.84575615  0.47416820  0.43401339    -0.79300
O14         O  0.76433993  0.03338464  0.01248256    -0.79100
O15         O  0.76912398  0.48309343  0.09653101    -0.77700
Zn16       Zn  0.80724098  0.42244866  0.04188177     1.55700
O17         O  0.76647323  0.00605802  0.45909880    -0.79100
Cd18       Cd  0.79581293  0.00386809  0.05003564     1.59700
Cd19       Cd  0.87100650  0.47220981  0.01704289     1.59600
O20         O  0.83665605  0.03506344  0.07227580    -0.79100
O21         O  0.81729398  0.46540356  0.01941786    -1.89600
Cd22       Cd  0.80169266  0.46442989  0.46840001     1.59900
O23         O  0.88689735  0.50911840  0.05204425    -0.79100
O24         O  0.78100838  0.41702245  0.45369277    -0.77700
C25         C  0.88804935  0.40218042  0.04134096     0.84800
C26         C  0.77080316  0.45385652  0.11086953     0.84500
O27         O  0.77710962  0.39136152  0.00882959    -0.76700
C28         C  0.75646441  0.03022872  0.97771219     0.85300
O29         O  0.85440943  0.39758772  0.04730387    -0.76800
C30         C  0.87101363  0.03133320  0.07399499     0.85400
C31         C  0.87888281  0.48126090  0.44008963     0.85700
O32         O  0.89214403  0.48234831  0.47270489    -0.79200
C33         C  0.73564370  0.30584019  0.45707900     0.82000
N34         N  0.74404130  0.33527758  0.47415604    -0.76300
C35         C  0.75956899  0.36064803  0.45440850     0.84400
N36         N  0.76716570  0.35602973  0.41757342    -0.76300
C37         C  0.75953426  0.32670520  0.40018851     0.84500
N38         N  0.74372987  0.30174329  0.42011917    -0.78000
C39         C  0.01649765  0.31138935  0.08929990     0.04900
C40         C  0.99571624  0.29667955  0.11780177    -0.11200
C41         C  0.96115103  0.30870781  0.12600975     0.02400
C42         C  0.94810470  0.33627559  0.10663441    -0.09800
C43         C  0.96706611  0.35005864  0.07655710     0.04900
C44         C  0.00210962  0.33811200  0.06834290    -0.09200
H45         H  0.00636316  0.27563061  0.13329936     0.10500
H46         H  0.92255983  0.34727033  0.11516874     0.08000
H47         H  0.01740587  0.34864674  0.04542702     0.07900
O48         O  0.19325425  0.17795458  0.09021980    -0.76700
C49         C  0.20170555  0.13722295  0.21058145     0.84300
O50         O  0.07630103  0.17516966  0.15228754    -0.77800
O51         O  0.13427570  0.22315128  0.25371404    -0.79300
O52         O  0.21380927  0.27748208  0.17469427    -0.79100
O53         O  0.20460181  0.23248973  0.08678980    -0.77700
Zn54       Zn  0.16962191  0.17000723  0.14077261     1.55700
O55         O  0.21351974  0.24735266  0.22732350    -0.79100
Cd56       Cd  0.18031757  0.25063567  0.13696151     1.59700
Cd57       Cd  0.10418895  0.21788782  0.16642027     1.59600
O58         O  0.13916241  0.28355621  0.11903397    -0.79100
O59         O  0.15820994  0.21206493  0.16480494    -1.89600
Cd60       Cd  0.17569309  0.21047416  0.21737516     1.59900
O61         O  0.08899740  0.25412720  0.12965317    -0.79100
O62         O  0.19419329  0.16264935  0.23065313    -0.77700
C63         C  0.08923419  0.14980091  0.13578130     0.84800
C64         C  0.20473643  0.20325751  0.07219560     0.84500
O65         O  0.19726975  0.13756269  0.17517458    -0.76700
C66         C  0.22309127  0.27305679  0.20892139     0.85300
O67         O  0.12299140  0.14662082  0.12942822    -0.76800
C68         C  0.10497822  0.27937603  0.11599922     0.85400
C69         C  0.10140546  0.23224126  0.24987836     0.85700
O70         O  0.08591654  0.23286158  0.21818318    -0.79200
C71         C  0.23632950  0.05093312  0.22752407     0.82000
N72         N  0.22825003  0.08021829  0.20996655    -0.76300
C73         C  0.21345728  0.10608099  0.22949290     0.84400
N74         N  0.20646593  0.10222335  0.26655271    -0.76300
C75         C  0.21394280  0.07308932  0.28437139     0.84500
N76         N  0.22883299  0.04752480  0.26464813    -0.78000
C77         C  0.96625061  0.22664295  0.35156231     0.04900
C78         C  0.98783806  0.24169671  0.32387058    -0.11200
C79         C  0.02337882  0.23094691  0.31775545     0.02400
C80         C  0.03709684  0.20527016  0.33988463    -0.09800
C81         C  0.01515465  0.18782013  0.36509314     0.04900
C82         C  0.97969170  0.19923070  0.37185951    -0.09200
H83         H  0.97678214  0.26160807  0.30686036     0.10500
H84         H  0.06476364  0.19726568  0.33586135     0.08000
H85         H  0.96274621  0.18686535  0.39226051     0.07900
O86         O  0.77396712  0.38324856  0.25789468    -0.76700
C87         C  0.77179488  0.32143924  0.36098814     0.84300
O88         O  0.89771012  0.35114901  0.27878340    -0.77800
O89         O  0.84117455  0.24341970  0.32041824    -0.79300
O90         O  0.76807896  0.27136734  0.20795612    -0.79100
O91         O  0.77942709  0.35823226  0.20260138    -0.77700
Zn92       Zn  0.80580570  0.35442467  0.29145090     1.55700
O93         O  0.76721901  0.24292699  0.26185414    -0.79100
Cd94       Cd  0.80194495  0.31178465  0.21645325     1.59700
Cd95       Cd  0.87187544  0.30753099  0.26844458     1.59600
O96         O  0.84561404  0.30420153  0.18076353    -0.79100
O97         O  0.81826337  0.31184884  0.26925590    -1.89600
Cd98       Cd  0.79843308  0.27300316  0.29864183     1.59900
O99         O  0.89209947  0.29273032  0.21817895    -0.79100
O100        O  0.77170088  0.29209569  0.34671914    -0.77700
C101        C  0.88472103  0.37866277  0.28975046     0.84800
C102        C  0.77003274  0.38326411  0.22250292     0.84500
O103        O  0.78413131  0.34652300  0.34306030    -0.76700
C104        C  0.75881529  0.24597171  0.22721202     0.85300
O105        O  0.85102794  0.38250366  0.29620564    -0.76800
C106        C  0.87864185  0.29603831  0.18581666     0.85400
C107        C  0.87494909  0.24992374  0.32327265     0.85700
O108        O  0.88910466  0.27486581  0.30723804    -0.79200
C109        C  0.73582873  0.46967365  0.20702211     0.82000
N110        N  0.74307850  0.43989675  0.22382925    -0.76300
C111        C  0.75754277  0.41418220  0.20375143     0.84400
N112        N  0.76515048  0.41871709  0.16690560    -0.76300
C113        C  0.75838382  0.44835633  0.14983303     0.84500
N114        N  0.74375460  0.47368866  0.17008866    -0.78800
C115        C  0.01937280  0.44773917  0.35661495     0.04900
C116        C  0.99865643  0.46626502  0.38220345    -0.11200
C117        C  0.96087815  0.46537425  0.38105721     0.02400
C118        C  0.94409273  0.44509711  0.35466123    -0.09800
C119        C  0.96400054  0.42689358  0.32829860     0.04900
C120        C  0.00207719  0.42819014  0.32937210    -0.09200
H121        H  0.01025636  0.97927667  0.40867387     0.10500
H122        H  0.91535856  0.44079394  0.35716754     0.08000
H123        H  0.01802446  0.41312529  0.31036412     0.07900
O124        O  0.18852423  0.13459098  0.42442022    -0.76700
C125        C  0.20153443  0.06830785  0.32346984     0.84300
O126        O  0.06913984  0.09096076  0.39975994    -0.77800
O127        O  0.13585226  0.98964703  0.36373821    -0.79300
O128        O  0.20574452  0.02100885  0.47621680    -0.79100
O129        O  0.19366525  0.10735529  0.47842036    -0.77700
Zn130      Zn  0.16192634  0.10115167  0.39003868     1.55700
O131        O  0.20735735  0.49116487  0.42234231    -0.79100
Cd132      Cd  0.17133349  0.06085952  0.46669372     1.59700
Cd133      Cd  0.09893047  0.05100142  0.41856758     1.59600
O134        O  0.13009149  0.05432993  0.50518620    -0.79100
O135        O  0.15248537  0.05891746  0.41466580    -1.89600
Cd136      Cd  0.17552545  0.02099721  0.38596020     1.59900
O137        O  0.08130408  0.04149022  0.47182986    -0.79100
O138        O  0.20232266  0.03926527  0.33821007    -0.77700
C139        C  0.08028684  0.11608028  0.38167621     0.84800
C140        C  0.19764152  0.13369288  0.45887593     0.84500
O141        O  0.18784571  0.09323464  0.34062128    -0.76700
C142        C  0.21596019  0.49497404  0.45680640     0.85300
O143        O  0.11382476  0.12155979  0.37598939    -0.76800
C144        C  0.09695752  0.04583823  0.50300162     0.85400
C145        C  0.10147056  0.98985488  0.36686454     0.85700
O146        O  0.08461935  0.01130749  0.38640229    -0.79200
C147        C  0.23651900  0.21818236  0.47625023     0.82000
N148        N  0.22696219  0.18946994  0.45838540    -0.76300
C149        C  0.21074446  0.16432222  0.47780371     0.84400
N150        N  0.20702719  0.16966819  0.01445132    -0.76300
C151        C  0.21591782  0.19836118  0.03250272     0.84500
N152        N  0.23200923  0.22319631  0.01282630    -0.78000
C153        C  0.51643665  0.31680633  0.08174825     0.04900
C154        C  0.49967319  0.33609506  0.10965780    -0.11200
C155        C  0.46237936  0.33218971  0.11640366     0.02400
C156        C  0.44423419  0.30573559  0.09913763    -0.09800
C157        C  0.45819531  0.29184287  0.06635918     0.04900
C158        C  0.49506322  0.29645432  0.05865945    -0.09200
H159        H  0.51493200  0.35507952  0.12422526     0.10500
H160        H  0.41733941  0.29955822  0.10843224     0.08000
H161        H  0.50700721  0.28487573  0.03423119     0.07900
O162        O  0.69864389  0.14357734  0.00883421    -0.76700
C163        C  0.70270444  0.20365136  0.11189437     0.84300
O164        O  0.57477696  0.17450327  0.03499125    -0.77800
O165        O  0.63534575  0.28391948  0.07080032    -0.79300
O166        O  0.70306618  0.25483208  0.45828746    -0.79100
O167        O  0.68747875  0.16837193  0.45342479    -0.77700
Zn168      Zn  0.66726780  0.17144342  0.04336901     1.55700
O169        O  0.70850318  0.28147660  0.01284468    -0.79100
Cd170      Cd  0.66694240  0.21588278  0.46902104     1.59700
Cd171      Cd  0.60133546  0.21863875  0.02698222     1.59600
O172        O  0.61974534  0.22899537  0.43956275    -0.79100
O173        O  0.65467596  0.21418960  0.02224398    -1.89600
Cd174      Cd  0.67663354  0.25258587  0.05008681     1.59900
O175        O  0.57891725  0.23920350  0.48408639    -0.79100
O176        O  0.70282676  0.23308911  0.09792876    -0.77700
C177        C  0.58834055  0.14681771  0.04475772     0.84800
C178        C  0.70029204  0.14316787  0.97327447     0.84500
O179        O  0.68999965  0.17873626  0.09407096    -0.76700
C180        C  0.71541704  0.27864588  0.97785564     0.85300
O181        O  0.62230242  0.14319163  0.04962281    -0.76800
C182        C  0.58844868  0.23920128  0.45012620     0.85400
C183        C  0.60238171  0.27723268  0.07856126     0.85700
O184        O  0.58752603  0.25012463  0.06888979    -0.79200
C185        C  0.73739740  0.05862009  0.45751753     0.82000
N186        N  0.72938190  0.08835361  0.47415266    -0.76300
C187        C  0.71368412  0.11353755  0.45410122     0.84400
N188        N  0.70581722  0.10852129  0.41744606    -0.76300
C189        C  0.71338972  0.07894513  0.40055965     0.84500
N190        N  0.72910832  0.05414594  0.42075658    -0.78000
C191        C  0.45929527  0.05682477  0.09045214     0.04900
C192        C  0.47482236  0.08233591  0.06870026    -0.11200
C193        C  0.50911448  0.09487272  0.07840696     0.02400
C194        C  0.52623068  0.08290599  0.11054407    -0.09800
C195        C  0.51199323  0.05650409  0.13098708     0.04900
C196        C  0.47808244  0.04395902  0.12146114    -0.09200
H197        H  0.46104746  0.09140219  0.04400980     0.10500
H198        H  0.55139569  0.09413062  0.11967920     0.08000
H199        H  0.46669312  0.02363221  0.13750966     0.07900
O200        O  0.27709492  0.38638115  0.17746400    -0.76700
C201        C  0.26886175  0.45127015  0.07429100     0.84300
O202        O  0.39736358  0.41772904  0.15151084    -0.77800
O203        O  0.33669020  0.02900924  0.11669346    -0.79300
O204        O  0.26619336  0.99864092  0.22665244    -0.79100
O205        O  0.28100121  0.41226124  0.23239829    -0.77700
Zn206      Zn  0.30458690  0.41690403  0.14181723     1.55700
O207        O  0.26316937  0.02674455  0.17278608    -0.79100
Cd208      Cd  0.30088376  0.45902769  0.21741944     1.59700
Cd209      Cd  0.37201163  0.46165878  0.16507209     1.59600
O210        O  0.34352488  0.46811384  0.25313648    -0.79100
O211        O  0.31799779  0.45867221  0.16479064    -1.89600
Cd212      Cd  0.29495767  0.99783818  0.13572790     1.59900
O213        O  0.39184049  0.47384261  0.21648372    -0.79100
O214        O  0.27101004  0.48061828  0.08814344    -0.77700
C215        C  0.38330727  0.39227513  0.13649364     0.84800
C216        C  0.27343997  0.38656921  0.21291891     0.84500
O217        O  0.27967021  0.42562194  0.09227034    -0.76700
C218        C  0.25570187  0.02376539  0.20758378     0.85300
O219        O  0.34944760  0.39033952  0.13026552    -0.76800
C220        C  0.37713934  0.47369461  0.24852901     0.85400
C221        C  0.37051212  0.02358839  0.11217831     0.85700
O222        O  0.38889553  0.49725016  0.12842846    -0.79200
C223        C  0.24292710  0.29959157  0.22924627     0.82000
N224        N  0.25164252  0.29559334  0.26610367    -0.76300
C225        C  0.26602575  0.32128119  0.28609008     0.84400
N226        N  0.27150337  0.35106555  0.26883215    -0.76300
C227        C  0.26313938  0.35535283  0.23212181     0.84500
N228        N  0.24906889  0.32945073  0.21244974    -0.78000
C229        C  0.47764629  0.23392431  0.33833390     0.04900
C230        C  0.48695802  0.20516156  0.31784941    -0.11200
C231        C  0.52328813  0.19436019  0.31717369     0.02400
C232        C  0.54917060  0.21150176  0.33835324    -0.09800
C233        C  0.54002115  0.23894809  0.35966637     0.04900
C234        C  0.50431631  0.25059699  0.35929932    -0.09200
H235        H  0.46650048  0.19186704  0.30216154     0.10500
H236        H  0.57651922  0.20181877  0.34088100     0.08000
H237        H  0.49705279  0.27196515  0.37620746     0.07900
O238        O  0.28784001  0.34266683  0.34383362    -0.76700
C239        C  0.26824625  0.38108484  0.46312363     0.84300
O240        O  0.39757842  0.35386396  0.41981701    -0.77800
O241        O  0.34027135  0.30022041  0.51116051    -0.79300
O242        O  0.26995191  0.24045563  0.42420016    -0.79100
O243        O  0.27947825  0.28763088  0.33999981    -0.77700
Zn244      Zn  0.30696015  0.35185451  0.39642849     1.55700
O245        O  0.26454509  0.27062154  0.47666213    -0.79100
Cd246      Cd  0.30399970  0.27035478  0.39004669     1.59700
Cd247      Cd  0.37309426  0.30843483  0.42620234     1.59600
O248        O  0.35006844  0.24272657  0.37205277    -0.79100
O249        O  0.31973954  0.31021472  0.42035508    -1.89600
Cd250      Cd  0.30001200  0.30995691  0.47175642     1.59900
O251        O  0.39426093  0.27785812  0.38739823    -0.79100
O252        O  0.27750287  0.35653280  0.48378259    -0.77700
C253        C  0.38425426  0.37981754  0.40495961     0.84800
C254        C  0.27794327  0.31685090  0.32556831     0.84500
O255        O  0.27280069  0.38049065  0.42781116    -0.76700
C256        C  0.25755761  0.24465728  0.45739038     0.85300
O257        O  0.35146846  0.38100832  0.39387586    -0.76800
C258        C  0.38322799  0.25191600  0.37070244     0.85400
C259        C  0.37338559  0.29147668  0.50817124     0.85700
O260        O  0.38927056  0.29036756  0.47678689    -0.79200
C261        C  0.23467784  0.46785251  0.47745653     0.82000
N262        N  0.24155160  0.43786945  0.46089065    -0.76300
C263        C  0.25561046  0.41217474  0.48122726     0.84400
N264        N  0.26353864  0.41717284  0.01784696    -0.76300
C265        C  0.25652991  0.44657433  0.03521505     0.84500
N266        N  0.24245123  0.47223459  0.01502394    -0.78000
C267        C  0.51146167  0.46839035  0.35186155     0.04900
C268        C  0.49171746  0.47862838  0.32030541    -0.11200
C269        C  0.45720039  0.46600861  0.31359085     0.02400
C270        C  0.44311615  0.44213550  0.33770248    -0.09800
C271        C  0.46138649  0.43254156  0.37021388     0.04900
C272        C  0.49627849  0.44529353  0.37707328    -0.09200
H273        H  0.50302839  0.49689769  0.30134674     0.10500
H274        H  0.41770531  0.43028046  0.33057877     0.08000
H275        H  0.51099644  0.43798213  0.40191186     0.07900
O276        O  0.68863674  0.09802174  0.34347662    -0.76700
C277        C  0.70428305  0.13290293  0.22315402     0.84300
O278        O  0.57617079  0.10314233  0.27954813    -0.77800
O279        O  0.62599644  0.05347607  0.18486277    -0.79300
O280        O  0.70878182  0.49379803  0.26201297    -0.79100
O281        O  0.70205787  0.04369368  0.34772238    -0.77700
Zn282      Zn  0.66899721  0.10477964  0.29130956     1.55700
O283        O  0.70496002  0.02217534  0.20858418    -0.79100
Cd284      Cd  0.67639952  0.02384514  0.29963060     1.59700
Cd285      Cd  0.60185960  0.05824399  0.27322909     1.59600
O286        O  0.63413924  0.99323186  0.31958418    -0.79100
O287        O  0.65564176  0.06225108  0.27094860    -1.89600
Cd288      Cd  0.67072784  0.06223223  0.21808294     1.59900
O289        O  0.58608350  0.02665488  0.31444533    -0.79100
O290        O  0.69238849  0.10878542  0.20333739    -0.77700
C291        C  0.59093380  0.13111921  0.28529008     0.84800
C292        C  0.70126004  0.07317959  0.36163878     0.84500
O293        O  0.70293416  0.13197593  0.25869754    -0.76700
C294        C  0.71703112  0.49697456  0.22734600     0.85300
O295        O  0.62479310  0.13394267  0.29104777    -0.76800
C296        C  0.60077490  0.99983949  0.32579197     0.85400
C297        C  0.59360662  0.04416542  0.19125147     0.85700
O298        O  0.58117927  0.04081672  0.22410197    -0.79200
C299        C  0.73947135  0.21887168  0.20729756     0.82000
N300        N  0.73082762  0.22312649  0.17058776    -0.76300
C301        C  0.71546098  0.19809981  0.15064009     0.84400
N302        N  0.70857705  0.16855948  0.16776314    -0.76300
C303        C  0.71679142  0.16377677  0.20439498     0.84500
N304        N  0.73208203  0.18918154  0.22423081    -0.78000
C305        C  0.54606214  0.48541510  0.35895884    -0.14700
C306        C  0.57660062  0.47524403  0.34187263    -0.29800
H307        H  0.54361299  0.51151300  0.36661451     0.14400
H308        H  0.57951523  0.44941316  0.33337543     0.14900
C309        C  0.44329357  0.40802319  0.39495036    -0.14700
C310        C  0.40689513  0.40923577  0.39849967    -0.29800
H311        H  0.45858049  0.38653440  0.40454392     0.14400
H312        H  0.39251203  0.43150646  0.38954323     0.14900
C313        C  0.53513605  0.16340605  0.29823171    -0.14700
C314        C  0.56937910  0.16167575  0.28547686    -0.29800
H315        H  0.51887254  0.14108247  0.30135578     0.14400
H316        H  0.58467566  0.18454180  0.28173467     0.14900
C317        C  0.44091131  0.24842503  0.33867857    -0.14700
C318        C  0.41127467  0.23218984  0.35095506    -0.29800
H319        H  0.44012379  0.27548277  0.33784341     0.14400
H320        H  0.41081651  0.20522692  0.35271886     0.14900
C321        C  0.39976177  0.47741758  0.28182524    -0.14700
C322        C  0.43616836  0.47586116  0.28032413    -0.29800
H323        H  0.38608316  0.47634842  0.30867238     0.14400
H324        H  0.45034742  0.47821080  0.25388984     0.14900
C325        C  0.53316059  0.04309501  0.16254321    -0.14700
C326        C  0.56937137  0.04026037  0.15923701    -0.29800
H327        H  0.51994100  0.04066607  0.18949422     0.14400
H328        H  0.58170557  0.04222563  0.13175452     0.14900
C329        C  0.39399553  0.04930214  0.09559002    -0.14700
C330        C  0.42548286  0.04008788  0.07983005    -0.29800
H331        H  0.39009017  0.07483730  0.10475859     0.14400
H332        H  0.42873401  0.01422052  0.07149197     0.14900
C333        C  0.56057170  0.24871984  0.42276931    -0.14700
C334        C  0.56764271  0.25043446  0.38630277    -0.29800
H335        H  0.53255862  0.24820687  0.43221718     0.14400
H336        H  0.59574064  0.24973842  0.37713786     0.14900
C337        C  0.56477850  0.11829794  0.05270463    -0.14700
C338        C  0.52839103  0.12036307  0.05607198    -0.29800
H339        H  0.57850057  0.09547181  0.06097681     0.14400
H340        H  0.51369084  0.14223417  0.04659539     0.14900
C341        C  0.43372864  0.28037735  0.03589414    -0.14700
C342        C  0.39458715  0.28551217  0.54236222    -0.29800
H343        H  0.44634094  0.27508279  0.00914279     0.14400
H344        H  0.38124488  0.29261524  0.56801478     0.14900
C345        C  0.44077607  0.35898192  0.13473499    -0.14700
C346        C  0.40598713  0.36435121  0.12434915    -0.29800
H347        H  0.45415434  0.37630749  0.15345412     0.14400
H348        H  0.39295030  0.34824867  0.10416743     0.14900
C349        C  0.55566790  0.31829749  0.07418425    -0.14700
C350        C  0.57860113  0.30173822  0.09660463    -0.29800
H351        H  0.56315521  0.32091981  0.04494476     0.14400
H352        H  0.56975689  0.29575046  0.12474581     0.14900
C353        C  0.07906255  0.46908384  0.34122428    -0.14700
C354        C  0.05897697  0.44800611  0.36139025    -0.29800
H355        H  0.07047469  0.97127988  0.31953566     0.14400
H356        H  0.06838398  0.44193173  0.38936258     0.14900
C357        C  0.90902810  0.40670552  0.29678222    -0.14700
C358        C  0.94452154  0.40251276  0.30460150    -0.29800
H359        H  0.89613722  0.43074241  0.30103158     0.14400
H360        H  0.95775718  0.37887092  0.29882642     0.14900
C361        C  0.03040862  0.15758364  0.38321489    -0.14700
C362        C  0.05433784  0.13864848  0.36420910    -0.29800
H363        H  0.02480200  0.15274142  0.41248227     0.14400
H364        H  0.05902668  0.14315061  0.33471040     0.14900
C365        C  0.93015929  0.24113805  0.35836306    -0.14700
C366        C  0.90013512  0.22763084  0.34342624    -0.29800
H367        H  0.93025761  0.26788297  0.36321068     0.14400
H368        H  0.89905085  0.20115478  0.33742063     0.14900
C369        C  0.08069283  0.23991888  0.28392891    -0.14700
C370        C  0.04424270  0.24179576  0.28445484    -0.29800
H371        H  0.09548039  0.23829995  0.31007790     0.14400
H372        H  0.02936903  0.24517961  0.25856008     0.14900
C373        C  0.93887240  0.29440285  0.15628359    -0.14700
C374        C  0.90247576  0.29363185  0.15312120    -0.29800
H375        H  0.95194635  0.28922189  0.18282044     0.14400
H376        H  0.89003099  0.29782669  0.12602185     0.14900
C377        C  0.05159261  0.29563764  0.08063235    -0.14700
C378        C  0.08179818  0.30512363  0.09865553    -0.29800
H379        H  0.04979523  0.26984736  0.07159052     0.14400
H380        H  0.08431085  0.33047517  0.10885488     0.14900
C381        C  0.90320583  0.48531623  0.40809316    -0.14700
C382        C  0.93913587  0.48002419  0.41168913    -0.29800
H383        H  0.89076737  0.48596560  0.38064996     0.14400
H384        H  0.95161221  0.48075035  0.43914784     0.14900
C385        C  0.91250633  0.37422289  0.04936244    -0.14700
C386        C  0.94861276  0.37662943  0.05474990    -0.29800
H387        H  0.89909936  0.35082238  0.05572329     0.14400
H388        H  0.96326633  0.39907364  0.04732541     0.14900
C389        C  0.07597472  0.04355985  0.53782583    -0.14700
C390        C  0.04250302  0.03585966  0.03631642    -0.29800
H391        H  0.08962560  0.05313657  0.56225884     0.14400
H392        H  0.03032236  0.02586491  0.01108537     0.14900
C393        C  0.06565951  0.12332938  0.12174650    -0.14700
C394        C  0.03145150  0.11665588  0.13306932    -0.29800
H395        H  0.07809198  0.10853897  0.09985736     0.14400
H396        H  0.01808501  0.13258222  0.15337135     0.14900
C397        C  0.89445124  0.05589503  0.09255878    -0.14700
C398        C  0.91903341  0.07137936  0.07105963    -0.29800
H399        H  0.90059228  0.05148976  0.12179502     0.14400
H400        H  0.91330955  0.07298287  0.04130822     0.14900
C401        C  0.95687202  0.07019477  0.58533988     0.04900
C402        C  0.97882644  0.05029572  0.56219291    -0.11200
C403        C  0.01590278  0.04681255  0.56935087     0.02400
C404        C  0.02964932  0.06084877  0.60206985    -0.09800
C405        C  0.01070085  0.08676425  0.61980496     0.04900
C406        C  0.97318828  0.08986627  0.61322003    -0.09200
H407        H  0.96720804  0.03860095  0.53770271     0.10500
H408        H  0.05689454  0.05506053  0.61088043     0.08000
H409        H  0.95746798  0.10869483  0.62766004     0.07900
O410        O  0.78316185  0.42856592  0.59365034    -0.76700
C411        C  0.77200371  0.39167338  0.47332556     0.84300
O412        O  0.89897033  0.42655680  0.53698306    -0.77800
O413        O  0.83988388  0.47479314  0.92988930    -0.79300
O414        O  0.76442943  0.03475343  0.51277387    -0.79100
O415        O  0.76974884  0.48286338  0.59773487    -0.77700
Zn416      Zn  0.80585560  0.42156187  0.54284171     1.55700
O417        O  0.76644894  0.00476237  0.95880339    -0.79100
Cd418      Cd  0.79527048  0.00480592  0.55035960     1.59700
Cd419      Cd  0.87184687  0.46967726  0.52328752     1.59600
O420        O  0.83597116  0.03530083  0.57412161    -0.79100
O421        O  0.81790807  0.46460408  0.52149353    -1.89600
Cd422      Cd  0.79852161  0.46455445  0.96732190     1.59900
O423        O  0.88728505  0.50672769  0.55848570    -0.79100
O424        O  0.77768904  0.41726515  0.95385498    -0.77700
C425        C  0.88547132  0.39869533  0.54607587     0.84800
C426        C  0.77033442  0.45339346  0.61164140     0.84500
O427        O  0.77571433  0.39169353  0.50873524    -0.76700
C428        C  0.75669532  0.03158758  0.47797254     0.85300
O429        O  0.85145470  0.39467853  0.54948787    -0.76800
C430        C  0.87033438  0.03159908  0.57574436     0.85400
C431        C  0.87267148  0.48404544  0.93359604     0.85700
O432        O  0.88777780  0.48638376  0.96528007    -0.79200
C433        C  0.73551189  0.30539093  0.95782834     0.82000
N434        N  0.74342396  0.33494066  0.97492957    -0.76300
C435        C  0.75867305  0.36041427  0.95514521     0.84400
N436        N  0.76644305  0.35580731  0.91836321    -0.76300
C437        C  0.75941759  0.32634772  0.90106901     0.84500
N438        N  0.74389461  0.30127182  0.92096642    -0.78000
C439        C  0.01394446  0.30546778  0.58869868     0.04900
C440        C  0.99453515  0.29098040  0.61835522    -0.11200
C441        C  0.96038459  0.30308719  0.62803013     0.02400
C442        C  0.94640821  0.33043139  0.60892592    -0.09800
C443        C  0.96407453  0.34406912  0.57797770     0.04900
C444        C  0.99868483  0.33205155  0.56824931    -0.09200
H445        H  0.00594964  0.27016668  0.63366907     0.10500
H446        H  0.92128356  0.34148210  0.61861379     0.08000
H447        H  0.01308317  0.34258643  0.54472092     0.07900
O448        O  0.19081505  0.17691566  0.59075714    -0.76700
C449        C  0.20411869  0.13883138  0.71068501     0.84300
O450        O  0.07619085  0.17301578  0.65564462    -0.77800
O451        O  0.13427577  0.22384771  0.75358878    -0.79300
O452        O  0.21194221  0.27869800  0.67371719    -0.79100
O453        O  0.20316934  0.23127731  0.58711704    -0.77700
Zn454      Zn  0.16912180  0.16951711  0.64188453     1.55700
O455        O  0.21251843  0.24892680  0.72653800    -0.79100
Cd456      Cd  0.17896535  0.25022486  0.63672665     1.59700
Cd457      Cd  0.10364714  0.21668950  0.66696496     1.59600
O458        O  0.13712327  0.28163072  0.61752696    -0.79100
O459        O  0.15762641  0.21174784  0.66515080    -1.89600
Cd460      Cd  0.17563921  0.21119458  0.71732711     1.59900
O461        O  0.08785135  0.25098705  0.62830992    -0.79100
O462        O  0.19579604  0.16405322  0.73074461    -0.77700
C463        C  0.08937729  0.14725341  0.64014485     0.84800
C464        C  0.20248575  0.20202024  0.57261903     0.84500
O465        O  0.19920331  0.13876241  0.67539532    -0.76700
C466        C  0.22146189  0.27470178  0.70795020     0.85300
O467        O  0.12304276  0.14454159  0.63313272    -0.76800
C468        C  0.10318477  0.27630882  0.61403865     0.85400
C469        C  0.10159105  0.23345895  0.74963640     0.85700
O470        O  0.08595294  0.23376591  0.71801595    -0.79200
C471        C  0.23989952  0.05310090  0.72724988     0.82000
N472        N  0.23170941  0.08238007  0.70978884    -0.76300
C473        C  0.21701187  0.10816649  0.72949566     0.84400
N474        N  0.21025492  0.10426659  0.76654557    -0.76300
C475        C  0.21783821  0.07514748  0.78424937     0.84500
N476        N  0.23257313  0.04961019  0.76439851    -0.78000
C477        C  0.96822725  0.22900979  0.85324226     0.04900
C478        C  0.98906805  0.24380000  0.82478456    -0.11200
C479        C  0.02475158  0.23357788  0.81849900     0.02400
C480        C  0.03932119  0.20871189  0.84118665    -0.09800
C481        C  0.01795616  0.19115251  0.86677536     0.04900
C482        C  0.98241059  0.20212168  0.87387235    -0.09200
H483        H  0.97736202  0.26313655  0.80740815     0.10500
H484        H  0.06711890  0.20113140  0.83710273     0.08000
H485        H  0.96593774  0.18975841  0.89468381     0.07900
O486        O  0.77288849  0.38233111  0.75875695    -0.76700
C487        C  0.77204066  0.32111871  0.86205195     0.84300
O488        O  0.89722370  0.35386916  0.77746174    -0.77800
O489        O  0.84347153  0.24410399  0.82072044    -0.79300
O490        O  0.76871461  0.27175541  0.70951451    -0.79100
O491        O  0.78107688  0.35812282  0.70337752    -0.77700
Zn492      Zn  0.80522152  0.35432099  0.79251984     1.55700
O493        O  0.76875730  0.24269158  0.76296969    -0.79100
Cd494      Cd  0.80298913  0.31163863  0.71807901     1.59700
Cd495      Cd  0.87243719  0.30894805  0.77081399     1.59600
O496        O  0.84683242  0.30194299  0.68354218    -0.79100
O497        O  0.81876136  0.31208027  0.77083830    -1.89600
Cd498      Cd  0.79974429  0.27293406  0.79986474     1.59900
O499        O  0.89270779  0.29069097  0.72190674    -0.79100
O500        O  0.77284816  0.29168492  0.84801882    -0.77700
C501        C  0.88315493  0.38092068  0.78852747     0.84800
C502        C  0.77034534  0.38273158  0.72323611     0.84500
O503        O  0.78373669  0.34639852  0.84403750    -0.76700
C504        C  0.75993317  0.24607818  0.72847100     0.85300
O505        O  0.84959293  0.38329741  0.79636169    -0.76800
C506        C  0.87944777  0.29281816  0.68931275     0.85400
C507        C  0.87656259  0.25227832  0.82585783     0.85700
O508        O  0.88975851  0.27879359  0.81223577    -0.79200
C509        C  0.73634559  0.46918114  0.70796320     0.82000
N510        N  0.74357049  0.43938068  0.72470828    -0.76300
C511        C  0.75779019  0.41363318  0.70450764     0.84400
N512        N  0.76507057  0.41815498  0.66759197    -0.76300
C513        C  0.75822184  0.44783564  0.65061554     0.84500
N514        N  0.74394985  0.47319191  0.67100234    -0.78800
C515        C  0.00867659  0.47436189  0.83408436     0.04900
C516        C  0.98746024  0.48936349  0.86214350    -0.11200
C517        C  0.95272990  0.47757812  0.86978983     0.02400
C518        C  0.93984142  0.45036233  0.84982971    -0.09800
C519        C  0.95933911  0.43646016  0.82018995     0.04900
C520        C  0.99463683  0.44780115  0.81291851    -0.09200
H521        H  0.01186084  0.98365683  0.90489217     0.10500
H522        H  0.91443525  0.43912984  0.85813774     0.08000
H523        H  0.01056015  0.43672508  0.79073461     0.07900
O524        O  0.19131306  0.13637392  0.92368725    -0.76700
C525        C  0.20497871  0.07023908  0.82309709     0.84300
O526        O  0.07202018  0.09449098  0.90002183    -0.77800
O527        O  0.13661512  0.99286699  0.86052088    -0.79300
O528        O  0.20628916  0.02202826  0.97514319    -0.79100
O529        O  0.19619315  0.10882794  0.97749065    -0.77700
Zn530      Zn  0.16464460  0.10327170  0.88897227     1.55700
O531        O  0.20737097  0.49200937  0.92306430    -0.79100
Cd532      Cd  0.17319728  0.06271101  0.96520786     1.59700
Cd533      Cd  0.10111694  0.05358848  0.91684129     1.59600
O534        O  0.13162177  0.05668630  0.00319670    -0.79100
O535        O  0.15465870  0.06102444  0.91312406    -1.89600
Cd536      Cd  0.17694540  0.02280127  0.88439372     1.59900
O537        O  0.08352745  0.04225552  0.96961037    -0.79100
O538        O  0.20538257  0.04112501  0.83768638    -0.77700
C539        C  0.08328535  0.11928632  0.88149376     0.84800
C540        C  0.20037984  0.13524579  0.95814539     0.84500
O541        O  0.19106778  0.09517044  0.84004179    -0.76700
C542        C  0.21643426  0.49578105  0.95741348     0.85300
O543        O  0.11678537  0.12413533  0.87488081    -0.76800
C544        C  0.09883187  0.04723007  0.00084098     0.85400
C545        C  0.10217396  0.99414976  0.86289234     0.85700
O546        O  0.08580471  0.01564063  0.88275067    -0.79200
C547        C  0.23956268  0.21950909  0.97569428     0.82000
N548        N  0.22995949  0.19081594  0.95788034    -0.76300
C549        C  0.21366436  0.16571720  0.97724762     0.84400
N550        N  0.20422937  0.16825231  0.51502881    -0.76300
C551        C  0.21315837  0.19696900  0.53298436     0.84500
N552        N  0.22909071  0.22178816  0.51332401    -0.78000
C553        C  0.51526066  0.31447915  0.58357492     0.04900
C554        C  0.49957307  0.33452266  0.61150944    -0.11200
C555        C  0.46243938  0.33111432  0.61954763     0.02400
C556        C  0.44350858  0.30437654  0.60376039    -0.09800
C557        C  0.45615220  0.28993494  0.57076873     0.04900
C558        C  0.49285605  0.29390537  0.56176864    -0.09200
H559        H  0.51539164  0.35384219  0.62482437     0.10500
H560        H  0.41667856  0.29878299  0.61384934     0.08000
H561        H  0.50379780  0.28184322  0.53713431     0.07900
O562        O  0.70067432  0.14523302  0.50849536    -0.76700
C563        C  0.70398078  0.20444928  0.61257523     0.84300
O564        O  0.57655400  0.17390922  0.53687557    -0.77800
O565        O  0.63559135  0.28483610  0.57051130    -0.79300
O566        O  0.70387116  0.25400699  0.95862986    -0.79100
O567        O  0.68849558  0.16762010  0.95356827    -0.77700
Zn568      Zn  0.66914326  0.17219993  0.54368045     1.55700
O569        O  0.70931467  0.28192258  0.51259537    -0.79100
Cd570      Cd  0.66762410  0.21508543  0.96842295     1.59700
Cd571      Cd  0.60232797  0.21856546  0.52972082     1.59600
O572        O  0.62158450  0.22821825  0.93709849    -0.79100
O573        O  0.65555424  0.21483426  0.52317901    -1.89600
Cd574      Cd  0.67745525  0.25344954  0.55059409     1.59900
O575        O  0.57954975  0.23877052  0.98027270    -0.79100
O576        O  0.70355173  0.23400185  0.59882185    -0.77700
C577        C  0.59081919  0.14612105  0.54508343     0.84800
C578        C  0.70067432  0.14436382  0.47289548     0.84500
O579        O  0.69182128  0.17944585  0.59447740    -0.76700
C580        C  0.71543313  0.27922295  0.47739182     0.85300
O581        O  0.62490160  0.14295726  0.54935109    -0.76800
C582        C  0.59007294  0.23863735  0.94663534     0.85400
C583        C  0.60325830  0.27731277  0.58006826     0.85700
O584        O  0.58948316  0.24913670  0.57282591    -0.79200
C585        C  0.73697442  0.05737924  0.95741305     0.82000
N586        N  0.72887628  0.08698267  0.97436842    -0.76300
C587        C  0.71341879  0.11241570  0.95448428     0.84400
N588        N  0.70582419  0.10781056  0.91773698    -0.76300
C589        C  0.71334039  0.07842859  0.90052085     0.84500
N590        N  0.72888348  0.05332824  0.92050149    -0.78000
C591        C  0.46310053  0.05266159  0.58677800     0.04900
C592        C  0.47841443  0.07880995  0.56581624    -0.11200
C593        C  0.51280379  0.09106935  0.57564366     0.02400
C594        C  0.53013787  0.07822750  0.60722869    -0.09800
C595        C  0.51596014  0.05144681  0.62709668     0.04900
C596        C  0.48210057  0.03900330  0.61722751    -0.09200
H597        H  0.46426191  0.08878264  0.54179869     0.10500
H598        H  0.55510723  0.08950345  0.61681271     0.08000
H599        H  0.47062003  0.01853942  0.63298383     0.07900
O600        O  0.27706582  0.38789233  0.67640648    -0.76700
C601        C  0.26995569  0.45176536  0.57359909     0.84300
O602        O  0.39861181  0.41851424  0.65145825    -0.77800
O603        O  0.33978706  0.02937281  0.61441073    -0.79300
O604        O  0.26807710  0.00021466  0.72607288    -0.79100
O605        O  0.28280851  0.41310951  0.73156155    -0.77700
Zn606      Zn  0.30576431  0.41783084  0.64129956     1.55700
O607        O  0.26688018  0.02901571  0.67250439    -0.79100
Cd608      Cd  0.30347949  0.45979076  0.71710278     1.59700
Cd609      Cd  0.37344617  0.46268967  0.66407892     1.59600
O610        O  0.34702299  0.46901809  0.75215766    -0.79100
O611        O  0.31944869  0.45952913  0.66420901    -1.89600
Cd612      Cd  0.29778660  0.99937184  0.63532953     1.59900
O613        O  0.39452388  0.47613996  0.71472366    -0.79100
O614        O  0.27197597  0.48115714  0.58733813    -0.77700
C615        C  0.38441678  0.39283520  0.63708897     0.84800
C616        C  0.27381623  0.38790471  0.71188108     0.84500
O617        O  0.28114170  0.42629044  0.59160610    -0.76700
C618        C  0.25874787  0.02579683  0.70714342     0.85300
O619        O  0.35056401  0.39092249  0.63077618    -0.76800
C620        C  0.38044042  0.47545871  0.74704392     0.85400
C621        C  0.37369830  0.02370546  0.61109310     0.85700
O622        O  0.38939211  0.49746491  0.62633423    -0.79200
C623        C  0.24111343  0.30148772  0.72817739     0.82000
N624        N  0.24980586  0.29747163  0.76504879    -0.76300
C625        C  0.26453802  0.32300866  0.78497072     0.84400
N626        N  0.27054050  0.35261947  0.76763791    -0.76300
C627        C  0.26236976  0.35696177  0.73093243     0.84500
N628        N  0.24780028  0.33123272  0.71125174    -0.78000
C629        C  0.47980347  0.23535737  0.83426605     0.04900
C630        C  0.48819166  0.20659931  0.81329643    -0.11200
C631        C  0.52424564  0.19496908  0.81219223     0.02400
C632        C  0.55071177  0.21115211  0.83353864    -0.09800
C633        C  0.54250695  0.23852146  0.85532311     0.04900
C634        C  0.50715187  0.25112027  0.85523406    -0.09200
H635        H  0.46728325  0.19397908  0.79754013     0.10500
H636        H  0.57778170  0.20074858  0.83573318     0.08000
H637        H  0.50064790  0.27250573  0.87242854     0.07900
O638        O  0.28708623  0.34433461  0.84231257    -0.76700
C639        C  0.27012440  0.38244576  0.96217192     0.84300
O640        O  0.39831933  0.35581177  0.91653655    -0.77800
O641        O  0.34324656  0.30103189  0.00701478    -0.79300
O642        O  0.27248135  0.24167543  0.92305211    -0.79100
O643        O  0.27926363  0.28918036  0.83836669    -0.77700
Zn644      Zn  0.30773922  0.35374666  0.89413737     1.55700
O645        O  0.26699458  0.27225994  0.97517615    -0.79100
Cd646      Cd  0.30536986  0.27184268  0.88756432     1.59700
Cd647      Cd  0.37439895  0.31027602  0.92195447     1.59600
O648        O  0.35177985  0.24495024  0.86821268    -0.79100
O649        O  0.32100992  0.31196544  0.91733845    -1.89600
Cd650      Cd  0.30225762  0.31147635  0.96907633     1.59900
O651        O  0.39545171  0.28113551  0.88171591    -0.79100
O652        O  0.27978300  0.35773943  0.98237509    -0.77700
C653        C  0.38511706  0.38158605  0.90124031     0.84800
C654        C  0.27704123  0.31847694  0.82419292     0.84500
O655        O  0.27448188  0.38230657  0.92681273    -0.76700
C656        C  0.26027834  0.24601558  0.95635212     0.85300
O657        O  0.35234104  0.38278169  0.89008551    -0.76800
C658        C  0.38470485  0.25476724  0.86570829     0.85400
C659        C  0.37612758  0.29186998  0.00325338     0.85700
O660        O  0.39152792  0.29101208  0.97160524    -0.79200
C661        C  0.23509883  0.46851228  0.97787566     0.82000
N662        N  0.24274669  0.43893136  0.96080345    -0.76300
C663        C  0.25686769  0.41307268  0.98081647     0.84400
N664        N  0.26313507  0.41688889  0.51797278    -0.76300
C665        C  0.25700406  0.44669121  0.53479077     0.84500
N666        N  0.24283659  0.47214924  0.51435036    -0.78000
C667        C  0.51377509  0.46985046  0.85217934     0.04900
C668        C  0.49488480  0.48067133  0.82020543    -0.11200
C669        C  0.46081686  0.46765746  0.81183732     0.02400
C670        C  0.44655107  0.44293856  0.83471026    -0.09800
C671        C  0.46365072  0.43326228  0.86782268     0.04900
C672        C  0.49807933  0.44616134  0.87625021    -0.09200
H673        H  0.50649222  0.49956958  0.80224960     0.10500
H674        H  0.42159341  0.43085165  0.82644156     0.08000
H675        H  0.51196100  0.43862236  0.90151591     0.07900
O676        O  0.68802578  0.09813846  0.84375361    -0.76700
C677        C  0.70549647  0.13316512  0.72338437     0.84300
O678        O  0.57665164  0.10348370  0.77541954    -0.77800
O679        O  0.62805273  0.05288404  0.68392323    -0.79300
O680        O  0.71007451  0.49356999  0.76307575    -0.79100
O681        O  0.70267060  0.04400645  0.84700265    -0.77700
Zn682      Zn  0.66911625  0.10527090  0.79097812     1.55700
O683        O  0.70645889  0.02355812  0.70883534    -0.79100
Cd684      Cd  0.67637698  0.02449395  0.79936776     1.59700
Cd685      Cd  0.60232796  0.05842521  0.77147242     1.59600
O686        O  0.63398391  0.99470342  0.82043390    -0.79100
O687        O  0.65601602  0.06282284  0.77049180    -1.89600
Cd688      Cd  0.67175629  0.06295414  0.71793478     1.59900
O689        O  0.58605261  0.02808042  0.81373810    -0.79100
O690        O  0.69319675  0.10941127  0.70333722    -0.77700
C691        C  0.59114281  0.13157829  0.78120794     0.84800
C692        C  0.70124020  0.07322357  0.86146931     0.84500
O693        O  0.70426294  0.13191329  0.75894013    -0.76700
C694        C  0.71778567  0.49651080  0.72828013     0.85300
O695        O  0.62475106  0.13458090  0.78853752    -0.76800
C696        C  0.60067324  0.00169330  0.82641138     0.85400
C697        C  0.59600257  0.04242466  0.68977621     0.85700
O698        O  0.58299608  0.03927151  0.72243022    -0.79200
C699        C  0.74071419  0.21910925  0.70826679     0.82000
N700        N  0.73201818  0.22365293  0.67158282    -0.76300
C701        C  0.71674972  0.19873664  0.65136765     0.84400
N702        N  0.70999323  0.16905572  0.66824632    -0.76300
C703        C  0.71821123  0.16403211  0.70484946     0.84500
N704        N  0.73345985  0.18928452  0.72491092    -0.78000
C705        C  0.54813790  0.48658016  0.86092052    -0.14700
C706        C  0.57925575  0.47585023  0.84546904    -0.29800
H707        H  0.54553460  0.51291019  0.86747061     0.14400
H708        H  0.58245830  0.44975676  0.83817123     0.14900
C709        C  0.44454901  0.40903260  0.89196703    -0.14700
C710        C  0.40807584  0.41063505  0.89430293    -0.29800
H711        H  0.45937022  0.38765280  0.90258758     0.14400
H712        H  0.39412083  0.43281575  0.88440583     0.14900
C713        C  0.53530863  0.16403493  0.79271816    -0.14700
C714        C  0.56942154  0.16202907  0.77958989    -0.29800
H715        H  0.51912258  0.14176355  0.79664815     0.14400
H716        H  0.58469303  0.18484384  0.77532268     0.14900
C717        C  0.44345247  0.25085129  0.83519061    -0.14700
C718        C  0.41292252  0.23504477  0.84594574    -0.29800
H719        H  0.44360127  0.27791509  0.83558931     0.14400
H720        H  0.41156904  0.20807148  0.84632726     0.14900
C721        C  0.40350873  0.47959143  0.78007738    -0.14700
C722        C  0.43999371  0.47817068  0.77854602    -0.29800
H723        H  0.39002208  0.47834094  0.80702051     0.14400
H724        H  0.45417922  0.48058729  0.75212768     0.14900
C725        C  0.53654468  0.03838688  0.65927073    -0.14700
C726        C  0.57290317  0.03673385  0.65720508    -0.29800
H727        H  0.52264378  0.03591657  0.68585100     0.14400
H728        H  0.58595522  0.03866816  0.63006987     0.14900
C729        C  0.39755365  0.04793941  0.59238163    -0.14700
C730        C  0.42848892  0.03699473  0.57680838    -0.29800
H731        H  0.39473905  0.07394844  0.60018173     0.14400
H732        H  0.43049811  0.01067375  0.56995007     0.14900
C733        C  0.56303658  0.24839146  0.91850787    -0.14700
C734        C  0.57057926  0.24888099  0.88210308    -0.29800
H735        H  0.53491947  0.24926199  0.92758844     0.14400
H736        H  0.59870707  0.24671898  0.87330187     0.14900
C737        C  0.56802237  0.11680910  0.55167334    -0.14700
C738        C  0.53154649  0.11778235  0.55462261    -0.29800
H739        H  0.58237038  0.09404853  0.55898908     0.14400
H740        H  0.51628475  0.13956987  0.54587100     0.14900
C741        C  0.43050714  0.27859730  0.54126655    -0.14700
C742        C  0.39742917  0.28497272  0.03705393    -0.29800
H743        H  0.44240160  0.27113980  0.51480398     0.14400
H744        H  0.38338513  0.28965201  0.06295981     0.14900
C745        C  0.44145924  0.35884997  0.63681393    -0.14700
C746        C  0.40688627  0.36451365  0.62587066    -0.29800
H747        H  0.45507043  0.37639453  0.65507795     0.14400
H748        H  0.39379342  0.34813050  0.60602400     0.14900
C749        C  0.55417646  0.31583838  0.57413299    -0.14700
C750        C  0.57871337  0.30187712  0.59700942    -0.29800
H751        H  0.56043471  0.31647675  0.54444413     0.14400
H752        H  0.57131701  0.29769664  0.62598635     0.14900
C753        C  0.07415000  0.47568150  0.84375329    -0.14700
C754        C  0.04466340  0.48859578  0.82709836    -0.29800
H755        H  0.06935652  0.97825274  0.81561656     0.14400
H756        H  0.04461034  0.51507157  0.82070759     0.14900
C757        C  0.90567781  0.41043699  0.79379391    -0.14700
C758        C  0.94188171  0.40932431  0.79884577    -0.29800
H759        H  0.89109226  0.43347100  0.79934315     0.14400
H760        H  0.95737672  0.38705471  0.79231073     0.14900
C761        C  0.03372730  0.16096657  0.88444219    -0.14700
C762        C  0.05738319  0.14226926  0.86479085    -0.29800
H763        H  0.02853118  0.15582020  0.91372924     0.14400
H764        H  0.06163216  0.14702211  0.83526474     0.14900
C765        C  0.93213761  0.24324235  0.86053775    -0.14700
C766        C  0.90221471  0.22989378  0.84525943    -0.29800
H767        H  0.93214141  0.26985548  0.86617353     0.14400
H768        H  0.90137525  0.20353283  0.83858818     0.14900
C769        C  0.08131791  0.24234140  0.78353224    -0.14700
C770        C  0.04487763  0.24381209  0.78451737    -0.29800
H771        H  0.09649049  0.24181223  0.80950203     0.14400
H772        H  0.02958517  0.24604292  0.75872361     0.14900
C773        C  0.93933421  0.28922621  0.65942596    -0.14700
C774        C  0.90296860  0.28771065  0.65683362    -0.29800
H775        H  0.95287765  0.28613598  0.68611887     0.14400
H776        H  0.89025924  0.29014080  0.62958514     0.14900
C777        C  0.04897553  0.29023249  0.57896734    -0.14700
C778        C  0.07946132  0.30091254  0.59554042    -0.29800
H779        H  0.04745339  0.26408341  0.57125178     0.14400
H780        H  0.08177697  0.32671607  0.60426196     0.14900
C781        C  0.89440632  0.48928128  0.89985798    -0.14700
C782        C  0.93087985  0.49066201  0.90112727    -0.29800
H783        H  0.88085273  0.48537085  0.87329433     0.14400
H784        H  0.94476775  0.49594878  0.92717506     0.14900
C785        C  0.90882442  0.36998904  0.55418113    -0.14700
C786        C  0.94525216  0.37107999  0.55730357    -0.29800
H787        H  0.89468486  0.34718268  0.56147844     0.14400
H788        H  0.96039842  0.39277744  0.54830456     0.14900
C789        C  0.07781304  0.04459678  0.03554098    -0.14700
C790        C  0.04041116  0.03564907  0.53866933    -0.29800
H791        H  0.09110680  0.05476667  0.05987750     0.14400
H792        H  0.02779952  0.02636740  0.51332660     0.14900
C793        C  0.06619539  0.11987660  0.62766398    -0.14700
C794        C  0.03167178  0.11385719  0.63842159    -0.29800
H795        H  0.07897903  0.10444068  0.60660315     0.14400
H796        H  0.01819338  0.13051877  0.65789347     0.14900
C797        C  0.89356425  0.05514280  0.59618219    -0.14700
C798        C  0.91793560  0.07227785  0.57606941    -0.29800
H799        H  0.90003034  0.04864310  0.62485376     0.14400
H800        H  0.91201784  0.07604666  0.54661347     0.14900
C801        C  0.95693837  0.57064995  0.07821774     0.04900
C802        C  0.97863424  0.55048995  0.05511924    -0.11200
C803        C  0.01569265  0.54670767  0.06219256     0.02400
C804        C  0.02973677  0.56119958  0.09457410    -0.09800
C805        C  0.01091306  0.58715299  0.11231968     0.04900
C806        C  0.97341563  0.59033591  0.10593077    -0.09200
H807        H  0.96678660  0.53863863  0.03083741     0.10500
H808        H  0.05694136  0.55562902  0.10344976     0.08000
H809        H  0.95779004  0.60915084  0.12049675     0.07900
O810        O  0.78286538  0.92970262  0.09377322    -0.76700
C811        C  0.77259102  0.89199506  0.97374207     0.84300
O812        O  0.89901512  0.92773062  0.03641460    -0.77800
O813        O  0.84462839  0.97427759  0.43358529    -0.79300
O814        O  0.76359224  0.53327376  0.01284019    -0.79100
O815        O  0.76929768  0.98397540  0.09758601    -0.77700
Zn816      Zn  0.80601995  0.92243349  0.04322366     1.55700
O817        O  0.76638134  0.50437281  0.45912830    -0.79100
Cd818      Cd  0.79539386  0.50319124  0.04919307     1.59700
Cd819      Cd  0.87161515  0.97061316  0.02312816     1.59600
O820        O  0.83620621  0.53371726  0.07201761    -0.79100
O821        O  0.81780390  0.96537391  0.02151767    -1.89600
Cd822      Cd  0.80069270  0.96568356  0.46848559     1.59900
O823        O  0.88715051  0.00685853  0.05892586    -0.79100
O824        O  0.77880134  0.91859961  0.45447009    -0.77700
C825        C  0.88580038  0.90012186  0.04675025     0.84800
C826        C  0.76983419  0.95453776  0.11159968     0.84500
O827        O  0.77632423  0.89214688  0.00914782    -0.76700
C828        C  0.75434127  0.52982921  0.97850679     0.85300
O829        O  0.85184866  0.89599703  0.05069731    -0.76800
C830        C  0.87070316  0.53164413  0.07055521     0.85400
C831        C  0.87699291  0.98394905  0.43947288     0.85700
O832        O  0.88960273  0.98798498  0.47205245    -0.79200
C833        C  0.73418547  0.80709563  0.45822063     0.82000
N834        N  0.74219246  0.83669225  0.47528795    -0.76300
C835        C  0.75773821  0.86211877  0.45554564     0.84400
N836        N  0.76570596  0.85738358  0.41881214    -0.76300
C837        C  0.75855654  0.82793824  0.40149932     0.84500
N838        N  0.74276499  0.80294160  0.42138363    -0.78000
C839        C  0.01455309  0.80859772  0.09115567     0.04900
C840        C  0.99488158  0.79348954  0.12025370    -0.11200
C841        C  0.96058875  0.80536183  0.12985396     0.02400
C842        C  0.94686163  0.83316457  0.11139379    -0.09800
C843        C  0.96478057  0.84728006  0.08088292     0.04900
C844        C  0.99947444  0.83553623  0.07123999    -0.09200
H845        H  0.00607241  0.77223145  0.13496410     0.10500
H846        H  0.92153736  0.84395397  0.12091100     0.08000
H847        H  0.01393702  0.84635193  0.04791302     0.07900
O848        O  0.19340636  0.67718302  0.08970699    -0.76700
C849        C  0.20219642  0.63747263  0.20990641     0.84300
O850        O  0.07614785  0.67241348  0.15041129    -0.77800
O851        O  0.13176171  0.72246953  0.25160980    -0.79300
O852        O  0.21139341  0.77748218  0.17290196    -0.79100
O853        O  0.20406485  0.73183393  0.08610576    -0.77700
Zn854      Zn  0.16946584  0.66890626  0.13988439     1.55700
O855        O  0.21053614  0.74799261  0.22593104    -0.79100
Cd856      Cd  0.17884415  0.74962126  0.13565009     1.59700
Cd857      Cd  0.10305410  0.71567059  0.16422852     1.59600
O858        O  0.13752657  0.78191997  0.11757572    -0.79100
O859        O  0.15710262  0.71085534  0.16342732    -1.89600
Cd860      Cd  0.17394379  0.71007972  0.21608628     1.59900
O861        O  0.08790784  0.75143983  0.12710947    -0.79100
O862        O  0.19376291  0.66275669  0.22984873    -0.77700
C863        C  0.08968032  0.64692083  0.13468529     0.84800
C864        C  0.20485969  0.70254426  0.07177614     0.84500
O865        O  0.19797188  0.63756788  0.17449209    -0.76700
C866        C  0.22003754  0.77360797  0.20732728     0.85300
O867        O  0.12354537  0.64417010  0.12867516    -0.76800
C868        C  0.10351802  0.77714526  0.11409225     0.85400
C869        C  0.09881119  0.73111008  0.24718933     0.85700
O870        O  0.08367586  0.73102206  0.21532972    -0.79200
C871        C  0.23759172  0.55152737  0.22685470     0.82000
N872        N  0.22949748  0.58080961  0.20930813    -0.76300
C873        C  0.21461895  0.60661406  0.22888875     0.84400
N874        N  0.20768960  0.60270661  0.26595057    -0.76300
C875        C  0.21530906  0.57356793  0.28370125     0.84500
N876        N  0.23013532  0.54807941  0.26393323    -0.78000
C877        C  0.96532505  0.72512488  0.35141688     0.04900
C878        C  0.98544255  0.73929150  0.32198465    -0.11200
C879        C  0.02125196  0.72943918  0.31555095     0.02400
C880        C  0.03650950  0.70533736  0.33879025    -0.09800
C881        C  0.01589916  0.68838912  0.36554019     0.04900
C882        C  0.98035244  0.69918916  0.37291566    -0.09200
H883        H  0.97322675  0.75810535  0.30426777     0.10500
H884        H  0.06436624  0.69803615  0.33448158     0.08000
H885        H  0.96453502  0.68745032  0.39470060     0.07900
O886        O  0.77451780  0.88434294  0.25899918    -0.76700
C887        C  0.77138409  0.82257010  0.36248246     0.84300
O888        O  0.89796193  0.85145378  0.27952821    -0.77800
O889        O  0.84062237  0.74350197  0.32073161    -0.79300
O890        O  0.76762509  0.77270811  0.20936620    -0.79100
O891        O  0.78040260  0.85924599  0.20378013    -0.77700
Zn892      Zn  0.80605170  0.85547910  0.29303937     1.55700
O893        O  0.76638983  0.74416049  0.26314763    -0.79100
Cd894      Cd  0.80220082  0.81254772  0.21823131     1.59700
Cd895      Cd  0.87151311  0.80782330  0.27117686     1.59600
O896        O  0.84619668  0.80308954  0.18358829    -0.79100
O897        O  0.81799447  0.81269231  0.27115162    -1.89600
Cd898      Cd  0.79792193  0.77382959  0.30012007     1.59900
O899        O  0.89160220  0.79034751  0.22194924    -0.79100
O900        O  0.77157786  0.79314475  0.34837706    -0.77700
C901        C  0.88538753  0.87906224  0.29069289     0.84800
C902        C  0.77073936  0.88428705  0.22356774     0.84500
O903        O  0.78379584  0.84765436  0.34455056    -0.76700
C904        C  0.75813903  0.74730898  0.22847572     0.85300
O905        O  0.85180166  0.88315080  0.29768729    -0.76800
C906        C  0.87867120  0.79348425  0.18933723     0.85400
C907        C  0.87411534  0.75043404  0.32532733     0.85700
O908        O  0.88817358  0.77648879  0.31160931    -0.79200
C909        C  0.73465774  0.97007596  0.20762945     0.82000
N910        N  0.74272387  0.94055373  0.22463628    -0.76300
C911        C  0.75775101  0.91503028  0.20468714     0.84400
N912        N  0.76503956  0.91953470  0.16776806    -0.76300
C913        C  0.75750719  0.94897178  0.15054171     0.84500
N914        N  0.74237448  0.97409405  0.17067023    -0.78800
C915        C  0.01876142  0.94563579  0.36246895     0.04900
C916        C  0.99746370  0.96505093  0.38660466    -0.11200
C917        C  0.95983617  0.96553280  0.38320375     0.02400
C918        C  0.94365277  0.94554914  0.35612354    -0.09800
C919        C  0.96421783  0.92629308  0.33123387     0.04900
C920        C  0.00222178  0.92638146  0.33447187    -0.09200
H921        H  0.01205198  0.48059834  0.40379306     0.10500
H922        H  0.91468762  0.94230771  0.35698836     0.08000
H923        H  0.01859793  0.91070661  0.31649630     0.07900
O924        O  0.18983681  0.63419211  0.42298229    -0.76700
C925        C  0.20291325  0.56856896  0.32268908     0.84300
O926        O  0.07089967  0.59263271  0.40092935    -0.77800
O927        O  0.13631117  0.49045471  0.36108280    -0.79300
O928        O  0.20705583  0.52098123  0.47521947    -0.79100
O929        O  0.19351084  0.60752426  0.47746118    -0.77700
Zn930      Zn  0.16325315  0.60096906  0.38891565     1.55700
O931        O  0.20679852  0.99181393  0.42294278    -0.79100
Cd932      Cd  0.17208128  0.56054148  0.46547187     1.59700
Cd933      Cd  0.10017648  0.55143884  0.41659147     1.59600
O934        O  0.13029658  0.55285903  0.50314132    -0.79100
O935        O  0.15376664  0.55871523  0.41330622    -1.89600
Cd936      Cd  0.17657004  0.52069088  0.38470491     1.59900
O937        O  0.08232324  0.53909876  0.46896459    -0.79100
O938        O  0.20391622  0.53948918  0.33739934    -0.77700
C939        C  0.08209248  0.61729466  0.38216041     0.84800
C940        C  0.19809024  0.63364153  0.45763114     0.84500
O941        O  0.18897480  0.59337373  0.33974597    -0.76700
C942        C  0.21501798  0.99531812  0.45748029     0.85300
O943        O  0.11552416  0.62191121  0.37517457    -0.76800
C944        C  0.09746213  0.54350284  0.50039655     0.85400
C945        C  0.10182984  0.49253790  0.36199659     0.85700
O946        O  0.08522639  0.51444066  0.38107196    -0.79200
C947        C  0.23574770  0.71873262  0.47380483     0.82000
N948        N  0.22665282  0.68968074  0.45640115    -0.76300
C949        C  0.21088772  0.66451960  0.47620619     0.84400
N950        N  0.20885129  0.66854863  0.01475037    -0.76300
C951        C  0.21681596  0.69757355  0.03246657     0.84500
N952        N  0.23247734  0.72257695  0.01268593    -0.78000
C953        C  0.51531141  0.81522001  0.08251073     0.04900
C954        C  0.49858523  0.83521058  0.10989868    -0.11200
C955        C  0.46122232  0.83154546  0.11675753     0.02400
C956        C  0.44311595  0.80467122  0.10033332    -0.09800
C957        C  0.45676503  0.79067178  0.06749961     0.04900
C958        C  0.49372509  0.79465542  0.05984748    -0.09200
H959        H  0.51384401  0.85461593  0.12374171     0.10500
H960        H  0.41620047  0.79861543  0.10976666     0.08000
H961        H  0.50545297  0.78284436  0.03544778     0.07900
O962        O  0.69981661  0.64440454  0.00911209    -0.76700
C963        C  0.70295876  0.70475319  0.11248948     0.84300
O964        O  0.57588149  0.67395160  0.03458572    -0.77800
O965        O  0.63524744  0.78459122  0.07002301    -0.79300
O966        O  0.70302668  0.75518210  0.45929769    -0.79100
O967        O  0.68811237  0.66751476  0.45408820    -0.77700
Zn968      Zn  0.66839302  0.67212568  0.04360133     1.55700
O969        O  0.70950368  0.78197980  0.01251019    -0.79100
Cd970      Cd  0.66743433  0.71538106  0.46943377     1.59700
Cd971      Cd  0.60213626  0.71851218  0.02753548     1.59600
O972        O  0.62025675  0.72793872  0.43944324    -0.79100
O973        O  0.65553213  0.71471515  0.02238215    -1.89600
Cd974      Cd  0.67717997  0.75339310  0.04997961     1.59900
O975        O  0.57883544  0.73807015  0.48341632    -0.79100
O976        O  0.70293176  0.73416140  0.09838723    -0.77700
C977        C  0.58990842  0.64627508  0.04367665     0.84800
C978        C  0.70023820  0.64342682  0.97352324     0.84500
O979        O  0.69065489  0.67967913  0.09460114    -0.76700
C980        C  0.71663830  0.77902186  0.97754710     0.85300
O981        O  0.62387117  0.64319643  0.04889473    -0.76800
C982        C  0.58870856  0.73788156  0.44956528     0.85400
C983        C  0.60260177  0.77725702  0.07859857     0.85700
O984        O  0.58842944  0.74956446  0.06992913    -0.79200
C985        C  0.73635666  0.55675216  0.45800047     0.82000
N986        N  0.72844213  0.58650868  0.47478492    -0.76300
C987        C  0.71300017  0.61194622  0.45481023     0.84400
N988        N  0.70527428  0.60712138  0.41808275    -0.76300
C989        C  0.71267330  0.57756840  0.40103724     0.84500
N990        N  0.72815640  0.55254899  0.42115427    -0.78000
C991        C  0.46278834  0.55337476  0.08872499     0.04900
C992        C  0.47774186  0.57900245  0.06665527    -0.11200
C993        C  0.51220910  0.59165955  0.07562842     0.02400
C994        C  0.53003546  0.57958585  0.10731857    -0.09800
C995        C  0.51618726  0.55325468  0.12814509     0.04900
C996        C  0.48220914  0.54059467  0.11930194    -0.09200
H997        H  0.46325153  0.58827144  0.04250127     0.10500
H998        H  0.55516290  0.59104293  0.11617172     0.08000
H999        H  0.47104882  0.52046919  0.13584116     0.07900
O1000       O  0.27463350  0.88688058  0.17568604    -0.76700
C1001       C  0.26623593  0.95106755  0.07333323     0.84300
O1002       O  0.39579392  0.91802948  0.14824890    -0.77800
O1003       O  0.33980527  0.52815470  0.11696347    -0.79300
O1004       O  0.26568965  0.49860254  0.22621555    -0.79100
O1005       O  0.27996115  0.91240237  0.23073907    -0.77700
Zn1006     Zn  0.30293170  0.91677946  0.14020154     1.55700
O1007       O  0.26588605  0.52757883  0.17280819    -0.79100
Cd1008     Cd  0.30100471  0.95890756  0.21622741     1.59700
Cd1009     Cd  0.37042511  0.96193811  0.16158812     1.59600
O1010       O  0.34529949  0.96743761  0.25025898    -0.79100
O1011       O  0.31641984  0.95863687  0.16308137    -1.89600
Cd1012     Cd  0.29760101  0.49791910  0.13658658     1.59900
O1013       O  0.39216860  0.97482963  0.21199730    -0.79100
O1014       O  0.26817502  0.98041494  0.08729095    -0.77700
C1015       C  0.38175284  0.89208031  0.13435746     0.84800
C1016       C  0.27114411  0.88709195  0.21114399     0.84500
O1017       O  0.27763959  0.92549703  0.09101346    -0.76700
C1018       C  0.25683374  0.52424938  0.20714762     0.85300
O1019       O  0.34778912  0.88976370  0.12874879    -0.76800
C1020       C  0.37861518  0.97387879  0.24453839     0.85400
C1021       C  0.37377700  0.52273005  0.11409192     0.85700
O1022       O  0.38592558  0.99734541  0.12425550    -0.79200
C1023       C  0.23914790  0.80054149  0.22760328     0.82000
N1024       N  0.24729568  0.79677687  0.26457292    -0.76300
C1025       C  0.26139861  0.82253680  0.28453655     0.84400
N1026       N  0.26731813  0.85215102  0.26716157    -0.76300
C1027       C  0.25965275  0.85623036  0.23030209     0.84500
N1028       N  0.24572005  0.83025355  0.21057788    -0.78000
C1029       C  0.47813882  0.73375777  0.33632889     0.04900
C1030       C  0.48747919  0.70558403  0.31470206    -0.11200
C1031       C  0.52381218  0.69449667  0.31396674     0.02400
C1032       C  0.54959490  0.71080961  0.33606899    -0.09800
C1033       C  0.54046270  0.73754646  0.35845458     0.04900
C1034       C  0.50482118  0.74941731  0.35829258    -0.09200
H1035       H  0.46709932  0.69302139  0.29817765     0.10500
H1036       H  0.57687294  0.70093902  0.33845502     0.08000
H1037       H  0.49765512  0.77035786  0.37589979     0.07900
O1038       O  0.28322611  0.84390094  0.34205643    -0.76700
C1039       C  0.26763832  0.88177444  0.46213082     0.84300
O1040       O  0.39481377  0.85577167  0.41473663    -0.77800
O1041       O  0.33942278  0.79929939  0.50664611    -0.79300
O1042       O  0.26926582  0.74076439  0.42142685    -0.79100
O1043       O  0.27659945  0.78864696  0.33753459    -0.77700
Zn1044     Zn  0.30419077  0.85303584  0.39364872     1.55700
O1045       O  0.26289626  0.77155664  0.47330061    -0.79100
Cd1046     Cd  0.30262396  0.77108728  0.38655798     1.59700
Cd1047     Cd  0.37152259  0.81006139  0.42147519     1.59600
O1048       O  0.34925011  0.74423262  0.36738641    -0.79100
O1049       O  0.31805513  0.81119272  0.41663404    -1.89600
Cd1050     Cd  0.29887585  0.81039429  0.46826542     1.59900
O1051       O  0.39313023  0.77975505  0.38243224    -0.79100
O1052       O  0.27726344  0.85694451  0.48215348    -0.77700
C1053       C  0.38123240  0.88145351  0.39957745     0.84800
C1054       C  0.27375050  0.81801923  0.32371062     0.84500
O1055       O  0.27136138  0.88154411  0.42670154    -0.76700
C1056       C  0.25647549  0.74524010  0.45446171     0.85300
O1057       O  0.34832808  0.88242837  0.38886738    -0.76800
C1058       C  0.38240623  0.75360865  0.36591377     0.85400
C1059       C  0.37284481  0.79182260  0.50329407     0.85700
O1060       O  0.38878861  0.79245541  0.47191650    -0.79200
C1061       C  0.23373727  0.96817034  0.47776480     0.82000
N1062       N  0.24086552  0.93842113  0.46086204    -0.76300
C1063       C  0.25513776  0.91265159  0.48086805     0.84400
N1064       N  0.26021380  0.91679588  0.01707788    -0.76300
C1065       C  0.25345986  0.94625888  0.03444875     0.84500
N1066       N  0.23958671  0.97197741  0.01428380    -0.78000
C1067       C  0.51135330  0.96786682  0.34995060     0.04900
C1068       C  0.49330668  0.97761242  0.31704784    -0.11200
C1069       C  0.45904905  0.96496832  0.30883551     0.02400
C1070       C  0.44390879  0.94136467  0.33256258    -0.09800
C1071       C  0.46019262  0.93274741  0.36644242     0.04900
C1072       C  0.49463776  0.94557298  0.37496850    -0.09200
H1073       H  0.50552984  0.99567699  0.29845798     0.10500
H1074       H  0.41887276  0.92939110  0.32433728     0.08000
H1075       H  0.50783199  0.93895781  0.40093734     0.07900
O1076       O  0.68882515  0.59732701  0.34369395    -0.76700
C1077       C  0.70573012  0.63343462  0.22342490     0.84300
O1078       O  0.57739599  0.60343922  0.27658456    -0.77800
O1079       O  0.62938433  0.55303761  0.18378996    -0.79300
O1080       O  0.70818692  0.99435384  0.26274775    -0.79100
O1081       O  0.70191741  0.54286411  0.34756514    -0.77700
Zn1082     Zn  0.67000101  0.60477542  0.29107107     1.55700
O1083       O  0.70776473  0.52256030  0.20839009    -0.79100
Cd1084     Cd  0.67691926  0.52344526  0.29885308     1.59700
Cd1085     Cd  0.60321882  0.55836159  0.27168614     1.59600
O1086       O  0.63407755  0.49310595  0.31811358    -0.79100
O1087       O  0.65703537  0.56228333  0.27028433    -1.89600
Cd1088     Cd  0.67325195  0.56244129  0.21775316     1.59900
O1089       O  0.58644447  0.52702342  0.31299642    -0.79100
O1090       O  0.69422260  0.60932149  0.20336659    -0.77700
C1091       C  0.59197440  0.63142232  0.28282157     0.84800
C1092       C  0.70102461  0.57223400  0.36181652     0.84500
O1093       O  0.70446138  0.63215361  0.25898117    -0.76700
C1094       C  0.71542635  0.99714410  0.22781793     0.85300
O1095       O  0.62566909  0.63416556  0.28976651    -0.76800
C1096       C  0.60078103  0.50001550  0.32430867     0.85400
C1097       C  0.59707254  0.54331554  0.18969230     0.85700
O1098       O  0.58401889  0.54023350  0.22232313    -0.79200
C1099       C  0.73897396  0.72020065  0.20832896     0.82000
N1100       N  0.73032041  0.72453592  0.17160224    -0.76300
C1101       C  0.71552667  0.69934223  0.15140428     0.84400
N1102       N  0.70928802  0.66956596  0.16830573    -0.76300
C1103       C  0.71755313  0.66469085  0.20492332     0.84500
N1104       N  0.73223335  0.69025183  0.22498268    -0.78000
C1105       C  0.54551143  0.98485987  0.35894885    -0.14700
C1106       C  0.57677742  0.97488020  0.34317591    -0.29800
H1107       H  0.54257489  0.01090935  0.36663752     0.14400
H1108       H  0.58023079  0.94906102  0.33484024     0.14900
C1109       C  0.44050774  0.90933786  0.39110549    -0.14700
C1110       C  0.40396147  0.91058302  0.39218385    -0.29800
H1111       H  0.45521491  0.88851494  0.40317396     0.14400
H1112       H  0.39000938  0.93230566  0.38107867     0.14900
C1113       C  0.53578368  0.66386747  0.29425138    -0.14700
C1114       C  0.57035249  0.66204797  0.28226533    -0.29800
H1115       H  0.51939705  0.64156347  0.29675357     0.14400
H1116       H  0.58579367  0.68490052  0.27910118     0.14900
C1117       C  0.44169239  0.74922951  0.33641109    -0.14700
C1118       C  0.41088771  0.73362103  0.34675405    -0.29800
H1119       H  0.44188194  0.77629626  0.33665530     0.14400
H1120       H  0.40939291  0.70665543  0.34728030     0.14900
C1121       C  0.40214932  0.97790237  0.27714158    -0.14700
C1122       C  0.43851666  0.97514580  0.27527488    -0.29800
H1123       H  0.38888263  0.97771243  0.30424153     0.14400
H1124       H  0.45257560  0.97632670  0.24867519     0.14900
C1125       C  0.53731267  0.54057684  0.16003713    -0.14700
C1126       C  0.57359011  0.53855366  0.15730090    -0.29800
H1127       H  0.52379207  0.53806063  0.18682270     0.14400
H1128       H  0.58631977  0.54050502  0.13000967     0.14900
C1129       C  0.39757583  0.54744907  0.09616435    -0.14700
C1130       C  0.42829290  0.53707945  0.07972283    -0.29800
H1131       H  0.39460715  0.57329342  0.10457324     0.14400
H1132       H  0.43059620  0.51088786  0.07236804     0.14900
C1133       C  0.56094243  0.74690318  0.42185785    -0.14700
C1134       C  0.56820358  0.74827720  0.38542077    -0.29800
H1135       H  0.53288356  0.74662109  0.43116105     0.14400
H1136       H  0.59634128  0.74730857  0.37641299     0.14900
C1137       C  0.56702472  0.61697685  0.05020794    -0.14700
C1138       C  0.53058718  0.61800743  0.05364402    -0.29800
H1139       H  0.58137458  0.59422677  0.05757317     0.14400
H1140       H  0.51525531  0.63979393  0.04502546     0.14900
C1141       C  0.43197290  0.78043857  0.03674677    -0.14700
C1142       C  0.39407632  0.78514150  0.53728975    -0.29800
H1143       H  0.44443276  0.77380561  0.01029801     0.14400
H1144       H  0.37986847  0.78943099  0.56322068     0.14900
C1145       C  0.43943567  0.85894037  0.13380032    -0.14700
C1146       C  0.40464277  0.86397012  0.12302521    -0.29800
H1147       H  0.45266264  0.87679753  0.15199468     0.14400
H1148       H  0.39172684  0.84727249  0.10339098     0.14900
C1149       C  0.55442944  0.81699037  0.07408932    -0.14700
C1150       C  0.57830505  0.80151582  0.09646645    -0.29800
H1151       H  0.56127759  0.81905623  0.04462633     0.14400
H1152       H  0.57024062  0.79601823  0.12497515     0.14900
C1153       C  0.07925134  0.96497090  0.34760567    -0.14700
C1154       C  0.05811449  0.94568309  0.36884584    -0.29800
H1155       H  0.06858016  0.47785179  0.31463202     0.14400
H1156       H  0.06631446  0.94183270  0.39771080     0.14900
C1157       C  0.91011610  0.90686694  0.29743592    -0.14700
C1158       C  0.94515086  0.90209653  0.30691259    -0.29800
H1159       H  0.89763915  0.93121124  0.30059062     0.14400
H1160       H  0.95793579  0.87804362  0.30231499     0.14900
C1161       C  0.03244029  0.65906099  0.38428184    -0.14700
C1162       C  0.05620198  0.64008130  0.36513280    -0.29800
H1163       H  0.02738707  0.65459226  0.41373307     0.14400
H1164       H  0.06021919  0.64403767  0.33543376     0.14900
C1165       C  0.92951963  0.73961874  0.35959199    -0.14700
C1166       C  0.89921167  0.72714834  0.34415516    -0.29800
H1167       H  0.93005959  0.76607229  0.36606469     0.14400
H1168       H  0.89781285  0.70098231  0.33667862     0.14900
C1169       C  0.07772946  0.73937329  0.28078986    -0.14700
C1170       C  0.04122305  0.73962498  0.28141507    -0.29800
H1171       H  0.09263411  0.73958094  0.30692920     0.14400
H1172       H  0.02605820  0.74106671  0.25547566     0.14900
C1173       C  0.93895097  0.79050720  0.16025406    -0.14700
C1174       C  0.90259537  0.78916402  0.15700535    -0.29800
H1175       H  0.95206523  0.78648887  0.18701978     0.14400
H1176       H  0.89029380  0.79249879  0.12968159     0.14900
C1177       C  0.04919954  0.79314387  0.08059830    -0.14700
C1178       C  0.08003127  0.80279346  0.09722425    -0.29800
H1179       H  0.04712134  0.76734987  0.07163481     0.14400
H1180       H  0.08288891  0.82819443  0.10718260     0.14900
C1181       C  0.90165258  0.98713082  0.40769394    -0.14700
C1182       C  0.93739603  0.98152189  0.41238336    -0.29800
H1183       H  0.88965181  0.98684471  0.38005825     0.14400
H1184       H  0.94917060  0.98302388  0.44013540     0.14900
C1185       C  0.90950697  0.87193822  0.05574800    -0.14700
C1186       C  0.94577694  0.87390615  0.05988387    -0.29800
H1187       H  0.89573059  0.84893504  0.06300161     0.14400
H1188       H  0.96058967  0.89588493  0.05115087     0.14900
C1189       C  0.07612221  0.54048831  0.53492104    -0.14700
C1190       C  0.03992867  0.53527281  0.03139558    -0.29800
H1191       H  0.09007464  0.54833451  0.55992172     0.14400
H1192       H  0.02717966  0.53012585  0.00467314     0.14900
C1193       C  0.06659198  0.61992980  0.12102092    -0.14700
C1194       C  0.03193508  0.61393674  0.13136334    -0.29800
H1195       H  0.07950993  0.60479034  0.09977640     0.14400
H1196       H  0.01843874  0.63033504  0.15108820     0.14900
C1197       C  0.89400506  0.55560403  0.09018872    -0.14700
C1198       C  0.91795805  0.57258956  0.06944127    -0.29800
H1199       H  0.90053770  0.54986785  0.11904789     0.14400
H1200       H  0.91167261  0.57585213  0.03998708     0.14900
C1201       C  0.95676897  0.57096373  0.58072040     0.04900
C1202       C  0.97865299  0.55075088  0.55787261    -0.11200
C1203       C  0.01566881  0.54704377  0.56520798     0.02400
C1204       C  0.02951247  0.56162510  0.59761664    -0.09800
C1205       C  0.01058574  0.58764910  0.61520488     0.04900
C1206       C  0.97309726  0.59080968  0.60844981    -0.09200
H1207       H  0.96694962  0.53866849  0.53366375     0.10500
H1208       H  0.05657045  0.55567949  0.60676359     0.08000
H1209       H  0.95733341  0.60960729  0.62289163     0.07900
O1210       O  0.78346854  0.93057831  0.59399297    -0.76700
C1211       C  0.77040933  0.89319838  0.47430700     0.84300
O1212       O  0.89905302  0.92973447  0.53286006    -0.77800
O1213       O  0.84582772  0.97559689  0.93405021    -0.79300
O1214       O  0.76384545  0.53261015  0.51302431    -0.79100
O1215       O  0.76819671  0.98453175  0.59724316    -0.77700
Zn1216     Zn  0.80606068  0.92342031  0.54298308     1.55700
O1217       O  0.76296214  0.50402197  0.95956145    -0.79100
Cd1218     Cd  0.79578520  0.50299794  0.55012698     1.59700
Cd1219     Cd  0.87074546  0.97273598  0.52217493     1.59600
O1220       O  0.83646750  0.53428321  0.57236370    -0.79100
O1221       O  0.81709135  0.96650293  0.52144530    -1.89600
Cd1222     Cd  0.80184661  0.96500229  0.96834274     1.59900
O1223       O  0.88656464  0.00787288  0.55933328    -0.79100
O1224       O  0.78144474  0.91733664  0.95397294    -0.77700
C1225       C  0.88643907  0.90176988  0.54278210     0.84800
C1226       C  0.76953272  0.95521245  0.61150481     0.84500
O1227       O  0.77531639  0.89314924  0.50956834    -0.76700
C1228       C  0.75607243  0.52963788  0.47821265     0.85300
O1229       O  0.85266285  0.89734434  0.54813213    -0.76800
C1230       C  0.87087807  0.53094892  0.57384449     0.85400
C1231       C  0.87865239  0.98365238  0.94037159     0.85700
O1232       O  0.89173544  0.98471499  0.97304479    -0.79200
C1233       C  0.73699176  0.80576401  0.95750986     0.82000
N1234       N  0.74505002  0.83529280  0.97464749    -0.76300
C1235       C  0.76039221  0.86081935  0.95493678     0.84400
N1236       N  0.76802537  0.85629815  0.91812649    -0.76300
C1237       C  0.76076322  0.82692582  0.90073457     0.84500
N1238       N  0.74525440  0.80177421  0.92058830    -0.78000
C1239       C  0.01301578  0.80807178  0.58771836     0.04900
C1240       C  0.99199006  0.79413022  0.61646465    -0.11200
C1241       C  0.95832022  0.80766276  0.62537556     0.02400
C1242       C  0.94644646  0.83594457  0.60662689    -0.09800
C1243       C  0.96521276  0.84870468  0.57593832     0.04900
C1244       C  0.99952493  0.83537453  0.56697818    -0.09200
H1245       H  0.00178996  0.77259304  0.63170909     0.10500
H1246       H  0.92166062  0.84801186  0.61575428     0.08000
H1247       H  0.01484150  0.84525348  0.54371527     0.07900
O1248       O  0.19142969  0.67740818  0.58906448    -0.76700
C1249       C  0.20277096  0.63727048  0.70953031     0.84300
O1250       O  0.07646681  0.67252524  0.65477899    -0.77800
O1251       O  0.13598628  0.72492976  0.75212234    -0.79300
O1252       O  0.21170835  0.77879319  0.67253326    -0.79100
O1253       O  0.20240206  0.73203771  0.58517382    -0.77700
Zn1254     Zn  0.16950320  0.66938178  0.64022458     1.55700
O1255       O  0.21441762  0.74796624  0.72455732    -0.79100
Cd1256     Cd  0.17860168  0.75043225  0.63538298     1.59700
Cd1257     Cd  0.10385634  0.71637553  0.66593279     1.59600
O1258       O  0.13620909  0.78179705  0.61707402    -0.79100
O1259       O  0.15794434  0.71153071  0.66372690    -1.89600
Cd1260     Cd  0.17663838  0.71066063  0.71575769     1.59900
O1261       O  0.08723420  0.75063399  0.62725614    -0.79100
O1262       O  0.19493317  0.66266752  0.72958121    -0.77700
C1263       C  0.08960700  0.64719979  0.63831973     0.84800
C1264       C  0.20234252  0.70273923  0.57073146     0.84500
O1265       O  0.19857886  0.63765476  0.67409983    -0.76700
C1266       C  0.22225279  0.77432680  0.70639527     0.85300
O1267       O  0.12322228  0.64482634  0.63086595    -0.76800
C1268       C  0.10229281  0.77633445  0.61349471     0.85400
C1269       C  0.10327662  0.73456741  0.74847143     0.85700
O1270       O  0.08700947  0.73394865  0.71717601    -0.79200
C1271       C  0.23750011  0.55091858  0.72617594     0.82000
N1272       N  0.22959898  0.58032975  0.70877226    -0.76300
C1273       C  0.21450092  0.60601733  0.72835837     0.84400
N1274       N  0.20719788  0.60183562  0.76531528    -0.76300
C1275       C  0.21449667  0.57251349  0.78290016     0.84500
N1276       N  0.22953709  0.54714899  0.76311592    -0.78000
C1277       C  0.96953542  0.73067684  0.85065095     0.04900
C1278       C  0.99057439  0.74578100  0.82258510    -0.11200
C1279       C  0.02730775  0.73798135  0.81874631     0.02400
C1280       C  0.04281763  0.71584043  0.84420263    -0.09800
C1281       C  0.02142074  0.69677861  0.86842358     0.04900
C1282       C  0.98464271  0.70524925  0.87290133    -0.09200
H1283       H  0.97819741  0.76345075  0.80355157     0.10500
H1284       H  0.07149383  0.71086342  0.84293744     0.08000
H1285       H  0.96800843  0.69212765  0.89297159     0.07900
O1286       O  0.77353368  0.88508467  0.75837872    -0.76700
C1287       C  0.77288050  0.82197156  0.86151845     0.84300
O1288       O  0.89724063  0.85426453  0.77815498    -0.77800
O1289       O  0.84382352  0.74480350  0.81846814    -0.79300
O1290       O  0.76671833  0.77278248  0.70933001    -0.79100
O1291       O  0.77724425  0.85943812  0.70328822    -0.77700
Zn1292     Zn  0.80545222  0.85626558  0.79201226     1.55700
O1293       O  0.76829914  0.74367692  0.76270250    -0.79100
Cd1294     Cd  0.80021859  0.81340971  0.71723081     1.59700
Cd1295     Cd  0.87152087  0.81052446  0.76797450     1.59600
O1296       O  0.84286231  0.80574824  0.68062677    -0.79100
O1297       O  0.81794652  0.81383467  0.76956347    -1.89600
Cd1298     Cd  0.79990067  0.77413788  0.79871715     1.59900
O1299       O  0.89016966  0.79559827  0.71744420    -0.79100
O1300       O  0.77397264  0.79256438  0.84745265    -0.77700
C1301       C  0.88422638  0.88129217  0.79049445     0.84800
C1302       C  0.76861982  0.88471116  0.72310360     0.84500
O1303       O  0.78388417  0.84747533  0.84339311    -0.76700
C1304       C  0.75877647  0.74693323  0.72841337     0.85300
O1305       O  0.85057735  0.88464242  0.79759234    -0.76800
C1306       C  0.87600123  0.79791328  0.68532015     0.85400
C1307       C  0.87744209  0.75202627  0.82102691     0.85700
O1308       O  0.89056122  0.77784659  0.80586478    -0.79200
C1309       C  0.73446420  0.97090004  0.70750274     0.82000
N1310       N  0.74164788  0.94116667  0.72432049    -0.76300
C1311       C  0.75600081  0.91546479  0.70425480     0.84400
N1312       N  0.76358405  0.91997517  0.66739440    -0.76300
C1313       C  0.75689840  0.94964563  0.65033778     0.84500
N1314       N  0.74236099  0.97497479  0.67059447    -0.78800
C1315       C  0.01911378  0.95002770  0.85839280     0.04900
C1316       C  0.99844825  0.96915928  0.88344743    -0.11200
C1317       C  0.96067882  0.96866551  0.88200281     0.02400
C1318       C  0.94381613  0.94817501  0.85584767    -0.09800
C1319       C  0.96364135  0.92936512  0.82997736     0.04900
C1320       C  0.00175123  0.93024104  0.83138005    -0.09200
H1321       H  0.99819515  0.50994408  0.87825814     0.10500
H1322       H  0.91503510  0.94418135  0.85823659     0.08000
H1323       H  0.01764908  0.91472942  0.81278562     0.07900
O1324       O  0.19677717  0.63418124  0.92379996    -0.76700
C1325       C  0.20275972  0.56778607  0.82218240     0.84300
O1326       O  0.07572990  0.60185768  0.90396478    -0.77800
O1327       O  0.13268575  0.49148776  0.86668005    -0.79300
O1328       O  0.20797350  0.52185993  0.97589151    -0.79100
O1329       O  0.19561777  0.60825508  0.97889352    -0.77700
Zn1330     Zn  0.16815487  0.60264247  0.88965208     1.55700
O1331       O  0.20646538  0.99258329  0.92201419    -0.79100
Cd1332     Cd  0.17349793  0.56173755  0.96623113     1.59700
Cd1333     Cd  0.10211285  0.55797975  0.91593818     1.59600
O1334       O  0.13101053  0.55306647  0.00271403    -0.79100
O1335       O  0.15598042  0.56110770  0.91389827    -1.89600
Cd1336     Cd  0.17565238  0.52134119  0.88594862     1.59900
O1337       O  0.08329227  0.54242856  0.96673802    -0.79100
O1338       O  0.20127631  0.53851032  0.83648234    -0.77700
C1339       C  0.08869747  0.62541333  0.88465282     0.84800
C1340       C  0.20291944  0.63375781  0.95891397     0.84500
O1341       O  0.19212403  0.59346237  0.84009010    -0.76700
C1342       C  0.21460474  0.99594132  0.95661500     0.85300
O1343       O  0.12221370  0.62696572  0.87652935    -0.76800
C1344       C  0.09807895  0.54437440  0.99865978     0.85400
C1345       C  0.09911701  0.49855208  0.86301981     0.85700
O1346       O  0.08510288  0.52446757  0.87746025    -0.79200
C1347       C  0.24053449  0.71868780  0.97569739     0.82000
N1348       N  0.23190705  0.68956896  0.95820127    -0.76300
C1349       C  0.21606851  0.66431700  0.97777028     0.84400
N1350       N  0.20436484  0.66874393  0.51336574    -0.76300
C1351       C  0.21283883  0.69774649  0.53095437     0.84500
N1352       N  0.22829630  0.72263238  0.51089528    -0.78000
C1353       C  0.51405457  0.81460411  0.58297950     0.04900
C1354       C  0.49779544  0.83439756  0.61074674    -0.11200
C1355       C  0.46032397  0.83172713  0.61709606     0.02400
C1356       C  0.44120209  0.80596999  0.59955887    -0.09800
C1357       C  0.45496321  0.79147409  0.56703802     0.04900
C1358       C  0.49209902  0.79484614  0.55978515    -0.09200
H1359       H  0.51359773  0.85298768  0.62534200     0.10500
H1360       H  0.41384041  0.80098516  0.60834904     0.08000
H1361       H  0.50381338  0.78287519  0.53547376     0.07900
O1362       O  0.69991223  0.64385750  0.50919180    -0.76700
C1363       C  0.70357273  0.70438227  0.61288492     0.84300
O1364       O  0.57658540  0.67324044  0.53663589    -0.77800
O1365       O  0.63380403  0.78393522  0.57170678    -0.79300
O1366       O  0.70502891  0.75432611  0.95838148    -0.79100
O1367       O  0.68804363  0.66767392  0.95376105    -0.77700
Zn1368     Zn  0.66902078  0.67175870  0.54422651     1.55700
O1369       O  0.70745878  0.78282357  0.51347715    -0.79100
Cd1370     Cd  0.66829358  0.71556871  0.96853759     1.59700
Cd1371     Cd  0.60198425  0.71785047  0.52935838     1.59600
O1372       O  0.62194864  0.72865088  0.93775268    -0.79100
O1373       O  0.65531948  0.71440369  0.52347397    -1.89600
Cd1374     Cd  0.67620301  0.75339947  0.55121595     1.59900
O1375       O  0.57998450  0.73884563  0.98113241    -0.79100
O1376       O  0.70258675  0.73398534  0.59927142    -0.77700
C1377       C  0.59084086  0.64580983  0.54615349     0.84800
C1378       C  0.70042366  0.64308379  0.47359674     0.84500
O1379       O  0.69190119  0.67924139  0.59472467    -0.76700
C1380       C  0.71428529  0.78008170  0.47840844     0.85300
O1381       O  0.62485094  0.64283828  0.55096294    -0.76800
C1382       C  0.59036365  0.73876147  0.94744258     0.85400
C1383       C  0.60146650  0.77597076  0.58075782     0.85700
O1384       O  0.58798858  0.74792181  0.57249677    -0.79200
C1385       C  0.73515360  0.55703696  0.95835847     0.82000
N1386       N  0.72746978  0.58679087  0.97510270    -0.76300
C1387       C  0.71259301  0.61232570  0.95493947     0.84400
N1388       N  0.70528569  0.60768060  0.91810437    -0.76300
C1389       C  0.71267702  0.57813824  0.90113167     0.84500
N1390       N  0.72749942  0.55297303  0.92142051    -0.78000
C1391       C  0.46351875  0.55340365  0.58979992     0.04900
C1392       C  0.47864207  0.57955576  0.56880497    -0.11200
C1393       C  0.51287181  0.59201818  0.57865985     0.02400
C1394       C  0.53026315  0.57944626  0.61034507    -0.09800
C1395       C  0.51636830  0.55247432  0.63007948     0.04900
C1396       C  0.48257187  0.53985930  0.62027287    -0.09200
H1397       H  0.46454721  0.58926438  0.54461323     0.10500
H1398       H  0.55527034  0.59076199  0.61978422     0.08000
H1399       H  0.47131859  0.51920625  0.63589205     0.07900
O1400       O  0.27659323  0.88835265  0.67563090    -0.76700
C1401       C  0.26880948  0.95197633  0.57361961     0.84300
O1402       O  0.39774846  0.91951315  0.65063915    -0.77800
O1403       O  0.34047468  0.52909895  0.61657022    -0.79300
O1404       O  0.26782776  0.49903926  0.72594392    -0.79100
O1405       O  0.28161259  0.91357962  0.73080719    -0.77700
Zn1406     Zn  0.30492155  0.91873144  0.64089729     1.55700
O1407       O  0.26607406  0.52738765  0.67211698    -0.79100
Cd1408     Cd  0.30255832  0.96030211  0.71647603     1.59700
Cd1409     Cd  0.37274091  0.96369741  0.66361172     1.59600
O1410       O  0.34600768  0.96911343  0.75148400    -0.79100
O1411       O  0.31870448  0.96045936  0.66364974    -1.89600
Cd1412     Cd  0.29849404  0.49847884  0.63590628     1.59900
O1413       O  0.39363118  0.97704508  0.71441123    -0.79100
O1414       O  0.27044680  0.98141895  0.58738256    -0.77700
C1415       C  0.38337191  0.89411714  0.63581474     0.84800
C1416       C  0.27305328  0.88828326  0.71104426     0.84500
O1417       O  0.28033359  0.92664512  0.59152068    -0.76700
C1418       C  0.25763002  0.52411958  0.70662689     0.85300
O1419       O  0.34951582  0.89232455  0.62973342    -0.76800
C1420       C  0.37933636  0.97596731  0.74662698     0.85400
C1421       C  0.37429313  0.52328679  0.61278336     0.85700
O1422       O  0.38887057  0.99840915  0.62575006    -0.79200
C1423       C  0.24163439  0.80129624  0.72679562     0.82000
N1424       N  0.25028599  0.79730453  0.76370581    -0.76300
C1425       C  0.26451404  0.82301006  0.78380852     0.84400
N1426       N  0.27006152  0.85275705  0.76661042    -0.76300
C1427       C  0.26193645  0.85711768  0.72990416     0.84500
N1428       N  0.24785740  0.83123239  0.71004842    -0.78000
C1429       C  0.47951945  0.73356437  0.83557982     0.04900
C1430       C  0.48791431  0.70454844  0.81493803    -0.11200
C1431       C  0.52401710  0.69284705  0.81401963     0.02400
C1432       C  0.55043105  0.70924387  0.83522099    -0.09800
C1433       C  0.54221253  0.73686519  0.85660017     0.04900
C1434       C  0.50687582  0.74944490  0.85638854    -0.09200
H1435       H  0.46703647  0.69187134  0.79920141     0.10500
H1436       H  0.57752925  0.69891928  0.83750457     0.08000
H1437       H  0.50043218  0.77106719  0.87323418     0.07900
O1438       O  0.28649570  0.84463092  0.84135037    -0.76700
C1439       C  0.26702703  0.88218716  0.96134025     0.84300
O1440       O  0.39658572  0.85753764  0.91630991    -0.77800
O1441       O  0.34215976  0.80294560  0.00667159    -0.79300
O1442       O  0.27231322  0.74162970  0.92264263    -0.79100
O1443       O  0.27881790  0.78942740  0.83760028    -0.77700
Zn1444     Zn  0.30593471  0.85429778  0.89379587     1.55700
O1445       O  0.26702814  0.77187601  0.97501014    -0.79100
Cd1446     Cd  0.30471740  0.77229689  0.88711254     1.59700
Cd1447     Cd  0.37363784  0.81136058  0.92146383     1.59600
O1448       O  0.35131387  0.74546360  0.86829196    -0.79100
O1449       O  0.32006722  0.81258008  0.91684921    -1.89600
Cd1450     Cd  0.30107640  0.81198991  0.96851980     1.59900
O1451       O  0.39522636  0.78148393  0.88173004    -0.79100
O1452       O  0.27737416  0.85775352  0.98157711    -0.77700
C1453       C  0.38257867  0.88370585  0.90261267     0.84800
C1454       C  0.27671977  0.81866221  0.82321436     0.84500
O1455       O  0.27119231  0.88197663  0.92594847    -0.76700
C1456       C  0.26053023  0.74559703  0.95616151     0.85300
O1457       O  0.34973003  0.88460320  0.89162499    -0.76800
C1458       C  0.38437462  0.75493879  0.86605145     0.85400
C1459       C  0.37513160  0.79399080  0.00325004     0.85700
O1460       O  0.39074084  0.79286364  0.97169835    -0.79200
C1461       C  0.23225683  0.96829571  0.97716359     0.82000
N1462       N  0.23962593  0.93867637  0.96004269    -0.76300
C1463       C  0.25347209  0.91270029  0.98004779     0.84400
N1464       N  0.26258621  0.91709194  0.51772346    -0.76300
C1465       C  0.25601316  0.94674759  0.53484531     0.84500
N1466       N  0.24167030  0.97220317  0.51466672    -0.78000
C1467       C  0.51133435  0.97199712  0.85367227     0.04900
C1468       C  0.49291742  0.98158875  0.82096058    -0.11200
C1469       C  0.45841109  0.96923327  0.81338503     0.02400
C1470       C  0.44317031  0.94624618  0.83783445    -0.09800
C1471       C  0.46012635  0.93732745  0.87130791     0.04900
C1472       C  0.49489450  0.94986086  0.87907506    -0.09200
H1473       H  0.50522243  0.99913065  0.80180470     0.10500
H1474       H  0.41794742  0.93437668  0.83008670     0.08000
H1475       H  0.50866019  0.94296432  0.90463424     0.07900
O1476       O  0.68854856  0.59757321  0.84385714    -0.76700
C1477       C  0.70652298  0.63286279  0.72364491     0.84300
O1478       O  0.57759701  0.60161094  0.77652333    -0.77800
O1479       O  0.62953708  0.55232395  0.68458802    -0.79300
O1480       O  0.70757116  0.99476354  0.76244588    -0.79100
O1481       O  0.70355345  0.54350848  0.84758392    -0.77700
Zn1482     Zn  0.67012781  0.60450340  0.79111021     1.55700
O1483       O  0.70812643  0.52187098  0.70915502    -0.79100
Cd1484     Cd  0.67846506  0.52343637  0.79962155     1.59700
Cd1485     Cd  0.60433685  0.55700697  0.77226906     1.59600
O1486       O  0.63643178  0.49309908  0.82039913    -0.79100
O1487       O  0.65795472  0.56176940  0.77070541    -1.89600
Cd1488     Cd  0.67379401  0.56186092  0.71817427     1.59900
O1489       O  0.58860556  0.52665152  0.81462828    -0.79100
O1490       O  0.69517429  0.60863370  0.70363642    -0.77700
C1491       C  0.59164780  0.62987840  0.78234659     0.84800
C1492       C  0.70152494  0.57277746  0.86189558     0.84500
O1493       O  0.70474858  0.63184623  0.75918688    -0.76700
C1494       C  0.71575369  0.99804065  0.72780542     0.85300
O1495       O  0.62529869  0.63324633  0.78919234    -0.76800
C1496       C  0.60320923  0.50008451  0.82678407     0.85400
C1497       C  0.59759767  0.54164475  0.69071354     0.85700
O1498       O  0.58510470  0.53769215  0.72345926    -0.79200
C1499       C  0.73989144  0.71958449  0.70848493     0.82000
N1500       N  0.73107781  0.72394238  0.67184052    -0.76300
C1501       C  0.71640525  0.69876290  0.65162863     0.84400
N1502       N  0.71030086  0.66892557  0.66847143    -0.76300
C1503       C  0.71862461  0.66402233  0.70508303     0.84500
N1504       N  0.73331691  0.68959919  0.72514897    -0.78000
C1505       C  0.54603517  0.98850481  0.86158234    -0.14700
C1506       C  0.57670406  0.97761714  0.84533428    -0.29800
H1507       H  0.54382030  0.01480855  0.86839312     0.14400
H1508       H  0.57948161  0.95153668  0.83780058     0.14900
C1509       C  0.44124521  0.91310143  0.89572456    -0.14700
C1510       C  0.40469447  0.91365345  0.89728966    -0.29800
H1511       H  0.45645333  0.89199040  0.90643321     0.14400
H1512       H  0.39026086  0.93562415  0.88752909     0.14900
C1513       C  0.53536724  0.66185890  0.79465931    -0.14700
C1514       C  0.56945839  0.66012969  0.78129467    -0.29800
H1515       H  0.51942038  0.63945705  0.79867309     0.14400
H1516       H  0.58443431  0.68310052  0.77697659     0.14900
C1517       C  0.44335551  0.74957304  0.83602683    -0.14700
C1518       C  0.41250007  0.73446965  0.84700270    -0.29800
H1519       H  0.44392773  0.77663111  0.83587948     0.14400
H1520       H  0.41066301  0.70753200  0.84793356     0.14900
C1521       C  0.40189747  0.98046042  0.77990456    -0.14700
C1522       C  0.43833188  0.97838841  0.77913529    -0.29800
H1523       H  0.38787449  0.98039273  0.80659001     0.14400
H1524       H  0.45300635  0.97957668  0.75289175     0.14900
C1525       C  0.53752929  0.53889404  0.66153543    -0.14700
C1526       C  0.57381514  0.53684972  0.65851749    -0.29800
H1527       H  0.52418302  0.53612368  0.68838012     0.14400
H1528       H  0.58629821  0.53921037  0.63114468     0.14900
C1529       C  0.39813975  0.54794696  0.59491988    -0.14700
C1530       C  0.42926513  0.53742106  0.57947436    -0.29800
H1531       H  0.39500962  0.57382655  0.60313775     0.14400
H1532       H  0.43166459  0.51122403  0.57217005     0.14900
C1533       C  0.56309025  0.74808355  0.91939274    -0.14700
C1534       C  0.57038842  0.74782733  0.88293196    -0.29800
H1535       H  0.53503456  0.74899658  0.92866693     0.14400
H1536       H  0.59845839  0.74557531  0.87397272     0.14900
C1537       C  0.56802978  0.61679526  0.55370224    -0.14700
C1538       C  0.53164140  0.61820706  0.55702858    -0.29800
H1539       H  0.58227005  0.59411306  0.56153555     0.14400
H1540       H  0.51649668  0.63994061  0.54789224     0.14900
C1541       C  0.43041161  0.78063406  0.53629798    -0.14700
C1542       C  0.39610780  0.78743809  0.03735330    -0.29800
H1543       H  0.44311407  0.77546387  0.50954801     0.14400
H1544       H  0.38229396  0.79377564  0.06295493     0.14900
C1545       C  0.43965213  0.85925955  0.63508054    -0.14700
C1546       C  0.40556823  0.86605908  0.62352882    -0.29800
H1547       H  0.45315222  0.87570845  0.65468781     0.14400
H1548       H  0.39261709  0.85082446  0.60244106     0.14900
C1549       C  0.55330005  0.81550563  0.57516165    -0.14700
C1550       C  0.57655623  0.79995418  0.59814705    -0.29800
H1551       H  0.56072547  0.81748411  0.54584234     0.14400
H1552       H  0.56776472  0.79435023  0.62640555     0.14900
C1553       C  0.07923460  0.97034786  0.84277956    -0.14700
C1554       C  0.05869022  0.95005657  0.86349542    -0.29800
H1555       H  0.07497167  0.44951301  0.85135200     0.14400
H1556       H  0.06776787  0.94475409  0.89178247     0.14900
C1557       C  0.90847889  0.90924574  0.79836277    -0.14700
C1558       C  0.94396172  0.90496845  0.80638101    -0.29800
H1559       H  0.89552510  0.93322160  0.80276298     0.14400
H1560       H  0.95715537  0.88133254  0.80048581     0.14900
C1561       C  0.03812055  0.66701865  0.88643645    -0.14700
C1562       C  0.06497438  0.65066506  0.86843878    -0.29800
H1563       H  0.02954937  0.65935034  0.91412140     0.14400
H1564       H  0.07219481  0.65746638  0.84009193     0.14900
C1565       C  0.93259582  0.74366664  0.85641882    -0.14700
C1566       C  0.90360988  0.72975789  0.83987213    -0.29800
H1567       H  0.93139024  0.77013239  0.86276202     0.14400
H1568       H  0.90392454  0.70361162  0.83219208     0.14900
C1569       C  0.08378993  0.74479453  0.78241962    -0.14700
C1570       C  0.04738051  0.74668852  0.78410379    -0.29800
H1571       H  0.09968360  0.74552000  0.80788306     0.14400
H1572       H  0.03179749  0.74796733  0.75840963     0.14900
C1573       C  0.93566469  0.79394939  0.65550489    -0.14700
C1574       C  0.89928802  0.79466140  0.65245101    -0.29800
H1575       H  0.94864505  0.78806567  0.68190540     0.14400
H1576       H  0.88685975  0.79940072  0.62545121     0.14900
C1577       C  0.04755878  0.79125340  0.57920148    -0.14700
C1578       C  0.07840174  0.80129721  0.59562449    -0.29800
H1579       H  0.04510172  0.76504039  0.57205508     0.14400
H1580       H  0.08158077  0.82714875  0.60384647     0.14900
C1581       C  0.90298155  0.98885237  0.90860862    -0.14700
C1582       C  0.93893997  0.98382359  0.91231305    -0.29800
H1583       H  0.89064919  0.98956771  0.88111372     0.14400
H1584       H  0.95130194  0.98456755  0.93983203     0.14900
C1585       C  0.91064992  0.87338721  0.54956469    -0.14700
C1586       C  0.94692506  0.87539049  0.55421678    -0.29800
H1587       H  0.89708891  0.85005104  0.55590083     0.14400
H1588       H  0.96173508  0.89775551  0.54682560     0.14900
C1589       C  0.07627130  0.53901746  0.03245977    -0.14700
C1590       C  0.04005089  0.53480266  0.53490558    -0.29800
H1591       H  0.09038846  0.54350707  0.05836754     0.14400
H1592       H  0.02729018  0.52693963  0.50904069     0.14900
C1593       C  0.06647723  0.61993370  0.62526158    -0.14700
C1594       C  0.03147050  0.61439885  0.63464098    -0.29800
H1595       H  0.07972625  0.60434968  0.60464367     0.14400
H1596       H  0.01760169  0.63127979  0.65358575     0.14900
C1597       C  0.89389809  0.55552069  0.59297861    -0.14700
C1598       C  0.91769470  0.57242423  0.57191219    -0.29800
H1599       H  0.90086172  0.54999708  0.62178126     0.14400
H1600       H  0.91133342  0.57522840  0.54241871     0.14900
loop_ 
_geom_bond_atom_site_label_1 
_geom_bond_atom_site_label_2 
_geom_bond_distance 
_geom_bond_site_symmetry_2 
_ccdc_geom_bond_type 
C1            C2   1.407       .  A
C1            C6   1.410       .  A
C1          C398   1.477       .  S
C2            C3   1.399   1_655  A
C2            H7   1.085       .  S
C3            C4   1.397       .  A
C3          C390   1.491       .  S
C4            C5   1.403       .  A
C4            H8   1.079       .  S
C5            C6   1.410   1_455  A
C5          C394   1.493       .  S
C6            H9   1.083       .  S
O10          C26   1.279       .  A
O10         Zn16   2.036       .  S
C11          O27   1.277   1_556  A
C11         O424   1.280       .  A
C11         C435   1.489       .  S
O12          C25   1.270       .  A
O12         Cd19   2.062       .  S
O13          C31   1.275       .  A
O13         Cd22   2.078       .  S
O14          C28   1.286   1_554  A
O14         Cd18   2.135       .  S
O15          C26   1.283       .  A
O15        Cd818   2.115       .  S
Zn16         O27   2.051       .  S
Zn16         O29   2.014       .  S
Zn16         O21   1.941       .  S
O17         C428   1.279       .  A
O17        Cd822   2.080   1_545  S
Cd18         O20   2.119       .  S
Cd18        O815   2.122   1_545  S
Cd18        O821   2.021   1_545  S
Cd19         O23   2.030       .  S
Cd19        O432   2.037   1_554  S
Cd19         O21   2.004       .  S
O20          C30   1.278       .  A
O21        Cd818   2.022       .  S
O21        Cd422   1.992   1_554  S
Cd22         O24   2.120       .  S
Cd22        O817   2.091       .  S
Cd22        O421   1.995       .  S
O23         C830   1.270       .  A
O24         C411   1.282       .  A
C25         C385   1.467       .  S
C25          O29   1.274       .  A
C26         C113   1.486       .  S
C28         O417   1.280       .  A
C28         C585   1.494       .  S
C30         C397   1.473       .  S
C30         O823   1.269       .  A
C31         C381   1.465       .  S
C31          O32   1.268       .  A
O32        Cd419   2.026       .  S
C33         C580   1.494       .  S
C33          N34   1.368       .  A
C33          N38   1.367       .  A
N34          C35   1.368       .  A
C35         C411   1.492       .  S
C35          N36   1.362       .  A
N36          C37   1.363       .  A
C37          C87   1.490       .  S
C37          N38   1.363       .  A
C39          C40   1.408   1_455  A
C39          C44   1.413       .  A
C39         C377   1.473       .  S
C40          C41   1.394       .  A
C40          H45   1.084   1_655  S
C41          C42   1.392       .  A
C41         C373   1.478       .  S
C42          C43   1.400       .  A
C42          H46   1.084       .  S
C43          C44   1.409   1_655  A
C43         C386   1.487       .  S
C44          H47   1.083       .  S
O48          C64   1.277       .  A
O48         Zn54   2.036       .  S
C49          O65   1.279       .  A
C49          O62   1.279       .  A
C49          C73   1.486       .  S
O50          C63   1.270       .  A
O50         Cd57   2.067       .  S
O51          C69   1.274       .  A
O51         Cd60   2.070       .  S
O52          C66   1.286       .  A
O52         Cd56   2.128       .  S
O53          C64   1.285       .  A
O53         Cd56   2.136       .  S
Zn54         O65   2.062       .  S
Zn54         O67   2.005       .  S
Zn54         O59   1.941       .  S
O55          C66   1.276       .  A
O55         Cd60   2.070       .  S
Cd56         O58   2.112       .  S
Cd56         O59   2.017       .  S
Cd57         O61   2.041       .  S
Cd57         O70   2.062       .  S
Cd57         O59   2.008       .  S
O58          C68   1.278       .  A
O59         Cd60   1.992       .  S
Cd60         O62   2.092       .  S
O61          C68   1.272       .  A
C63         C393   1.465       .  S
C63          O67   1.273       .  A
C64         C151   1.494       .  S
C66         C223   1.486       .  S
C68         C378   1.478       .  S
C69         C369   1.472       .  S
C69          O70   1.272       .  A
C71         C218   1.486       .  S
C71          N72   1.366       .  A
C71          N76   1.366       .  A
N72          C73   1.365       .  A
C73          N74   1.362       .  A
N74          C75   1.361       .  A
C75         C125   1.486       .  S
C75          N76   1.361       .  A
C77          C78   1.410       .  A
C77          C82   1.409       .  A
C77         C365   1.473       .  S
C78          C79   1.397   1_655  A
C78          H83   1.084       .  S
C79          C80   1.395       .  A
C79         C370   1.486       .  S
C80          C81   1.402       .  A
C80          H84   1.079       .  S
C81          C82   1.407   1_455  A
C81         C361   1.487       .  S
C82          H85   1.083       .  S
O86         C102   1.276       .  A
O86         Zn92   2.040       .  S
C87         O103   1.280       .  A
C87         O100   1.285       .  A
O88         C101   1.266       .  A
O88         Cd95   2.031       .  S
O89         C107   1.279       .  A
O89         Cd98   2.121       .  S
O90         C104   1.279       .  A
O90         Cd94   2.074       .  S
O91         C102   1.280       .  A
O91         Cd94   2.100       .  S
Zn92        O103   2.040       .  S
Zn92        O105   2.025       .  S
Zn92         O97   1.940       .  S
O93         C104   1.285       .  A
O93         Cd98   2.129       .  S
Cd94         O96   2.079       .  S
Cd94         O97   1.986       .  S
Cd95         O99   2.037       .  S
Cd95        O108   2.014       .  S
Cd95         O97   1.986       .  S
O96         C106   1.275       .  A
O97         Cd98   2.021       .  S
Cd98        O100   2.127       .  S
O99         C106   1.269       .  A
C101        C357   1.464       .  S
C101        O105   1.274       .  A
C102        C111   1.484       .  S
C104        C299   1.486       .  S
C106        C374   1.468       .  S
C107        C366   1.478       .  S
C107        O108   1.269       .  A
C109        C294   1.486       .  S
C109        N110   1.365       .  A
C109        N114   1.365       .  A
N110        C111   1.366       .  A
C111        N112   1.362       .  A
N112        C113   1.361       .  A
C113        N114   1.360       .  A
C115        C116   1.405   1_455  A
C115        C120   1.407       .  A
C115        C354   1.472       .  S
C116        C117   1.396       .  A
C116        H921   1.085   1_655  S
C117        C118   1.395       .  A
C117        C382   1.480       .  S
C118        C119   1.401       .  A
C118        H122   1.079       .  S
C119        C120   1.407   1_655  A
C119        C358   1.484       .  S
C120        H123   1.084       .  S
H121        C916   1.085   1_455  S
O124        C140   1.280       .  A
O124       Zn130   2.072       .  S
C125        O141   1.278       .  A
C125        O138   1.281       .  A
O126        C139   1.269       .  A
O126       Cd133   2.057       .  S
O127        C145   1.274       .  A
O127       Cd136   2.092   1_565  S
O128        C942   1.277   1_545  A
O128       Cd132   2.069       .  S
O129        C140   1.277       .  A
O129       Cd132   2.086       .  S
Zn130       O141   2.037       .  S
Zn130       O143   2.018       .  S
Zn130       O135   1.945       .  S
O131        C142   1.284       .  A
O131       Cd936   2.124       .  S
Cd132       O134   2.071       .  S
Cd132       O135   1.992       .  S
Cd133       O137   2.052       .  S
Cd133       O146   2.038       .  S
Cd133       O135   2.008       .  S
O134        C144   1.273       .  A
O135       Cd136   2.023       .  S
Cd136       O138   2.109       .  S
Cd136       O931   2.111   1_545  S
O137        C144   1.270       .  A
C139        C362   1.458       .  S
C139        O143   1.274       .  A
C140        C149   1.487       .  S
C142        O928   1.278       .  A
C142        C261   1.486       .  S
C144        C389   1.471       .  S
C145       C1153   1.467       .  S
C145        O146   1.271   1_565  A
C147        C256   1.482       .  S
C147        N148   1.366       .  A
C147        N552   1.364       .  A
N148        C149   1.366       .  A
C149        N550   1.364       .  A
N150        C151   1.363       .  A
N150        C549   1.364   1_554  A
C151        N152   1.359       .  A
N152        C547   1.367   1_554  A
C153        C154   1.407       .  A
C153        C158   1.407       .  A
C153        C349   1.475       .  S
C154        C155   1.407       .  A
C154        H159   1.083       .  S
C155        C156   1.402       .  A
C155        C345   1.490       .  S
C156        C157   1.398       .  A
C156        H160   1.077       .  S
C157        C158   1.401       .  A
C157        C341   1.491       .  S
C158        H161   1.084       .  S
O162        C178   1.276   1_554  A
O162       Zn168   2.029       .  S
C163        O179   1.278       .  A
C163        O176   1.284       .  A
C163        C301   1.483       .  S
O164        C177   1.268       .  A
O164       Cd171   2.048       .  S
O165        C183   1.277       .  A
O165       Cd174   2.109       .  S
O166        C580   1.280       .  A
O166       Cd170   2.094       .  S
O167        C578   1.285       .  A
O167       Cd170   2.126       .  S
Zn168       O179   2.023       .  S
Zn168       O181   2.026       .  S
Zn168       O173   1.932       .  S
O169        C180   1.284   1_554  A
O169       Cd174   2.126       .  S
Cd170       O172   2.103       .  S
Cd170       O573   1.986       .  S
Cd171       O184   2.027       .  S
Cd171       O575   2.025   1_554  S
Cd171       O173   1.984       .  S
O172        C182   1.282       .  A
O173       Cd174   2.010       .  S
O173       Cd570   1.987   1_554  S
Cd174       O176   2.118       .  S
O175        C182   1.267       .  A
O175       Cd571   2.026       .  S
C177        C337   1.468       .  S
C177        O181   1.274       .  A
C178        O567   1.285       .  A
C178        C587   1.487       .  S
C180        O566   1.280       .  A
C180        C433   1.491       .  S
C182        C333   1.471       .  S
C183        C350   1.467       .  S
C183        O184   1.269       .  A
C185        C428   1.490       .  S
C185        N186   1.366       .  A
C185        N190   1.364       .  A
N186        C187   1.368       .  A
C187        C578   1.488       .  S
C187        N188   1.360       .  A
N188        C189   1.361       .  A
C189        C292   1.483       .  S
C189        N190   1.360       .  A
C191        C192   1.410       .  A
C191        C196   1.408       .  A
C191        C330   1.470       .  S
C192        C193   1.407       .  A
C192        H197   1.083       .  S
C193        C194   1.398       .  A
C193        C338   1.483       .  S
C194        C195   1.393       .  A
C194        H198   1.084       .  S
C195        C196   1.393       .  A
C195        C325   1.476       .  S
C196        H199   1.084       .  S
O200        C216   1.278       .  A
O200       Zn206   2.042       .  S
C201        O217   1.278       .  A
C201        O214   1.282       .  A
C201        C265   1.485       .  S
O202        C215   1.268       .  A
O202       Cd209   2.053       .  S
O203        C221   1.277       .  A
O203       Cd212   2.101   1_545  S
O204        C218   1.278   1_565  A
O204      Cd1008   2.080       .  S
O205        C216   1.277       .  A
O205       Cd208   2.089       .  S
Zn206       O217   2.030       .  S
Zn206       O219   2.010       .  S
Zn206       O211   1.934       .  S
O207        C218   1.283       .  A
O207       Cd212   2.116   1_545  S
Cd208       O210   2.062       .  S
Cd208      O1004   2.074       .  S
Cd208       O211   1.989       .  S
Cd209       O213   2.043       .  S
Cd209       O222   2.040       .  S
Cd209       O211   1.998       .  S
O210        C220   1.272       .  A
O211      Cd1012   2.017       .  S
Cd212      O1014   2.118       .  S
Cd212      O1011   2.015       .  S
O213        C220   1.270       .  A
O214      Cd1012   2.113       .  S
C215        C346   1.464       .  S
C215        O219   1.272       .  A
C216        C227   1.481       .  S
C220        C321   1.464       .  S
C221        C329   1.475       .  S
C221       O1022   1.272   1_545  A
O222       C1021   1.273       .  A
C223        N224   1.369       .  A
C223        N228   1.361       .  A
N224        C225   1.365       .  A
C225        C254   1.492       .  S
C225        N226   1.362       .  A
N226        C227   1.362       .  A
C227        N228   1.361       .  A
C229        C230   1.410       .  A
C229        C234   1.409       .  A
C229        C317   1.474       .  S
C230        C231   1.409       .  A
C230        H235   1.084       .  S
C231        C232   1.403       .  A
C231        C313   1.481       .  S
C232        C233   1.382       .  A
C232        H236   1.085       .  S
C233        C234   1.397       .  A
C233        C334   1.472       .  S
C234        H237   1.084       .  S
O238        C254   1.280       .  A
O238       Zn244   2.047       .  S
C239        O255   1.277       .  A
C239        O252   1.279       .  A
C239        C263   1.481       .  S
O240        C253   1.269       .  A
O240       Cd247   2.051       .  S
O241        C259   1.275       .  A
O241       Cd250   2.087       .  S
O242        C256   1.285       .  A
O242       Cd246   2.128       .  S
O243        C254   1.284       .  A
O243       Cd246   2.125       .  S
Zn244       O255   2.042       .  S
Zn244       O257   2.022       .  S
Zn244       O249   1.937       .  S
O245        C256   1.278       .  A
O245       Cd250   2.062       .  S
Cd246       O248   2.128       .  S
Cd246       O249   2.021       .  S
Cd247       O251   2.011       .  S
Cd247       O260   2.041       .  S
Cd247       O249   1.982       .  S
O248        C258   1.280       .  A
O249       Cd250   1.980       .  S
Cd250       O252   2.090       .  S
O251        C258   1.270       .  A
C253        C310   1.468       .  S
C253        O257   1.275       .  A
C258        C318   1.482       .  S
C259        C342   1.473       .  S
C259        O260   1.269       .  A
C261        N262   1.366       .  A
C261        N666   1.367       .  A
N262        C263   1.365       .  A
C263        N664   1.359       .  A
N264        C265   1.359       .  A
N264        C663   1.360   1_554  A
C265        N266   1.361       .  A
N266        C661   1.367   1_554  A
C267        C268   1.406       .  A
C267        C272   1.412       .  A
C267        C305   1.473       .  S
C268        C269   1.394       .  A
C268        H273   1.084       .  S
C269        C270   1.392       .  A
C269        C322   1.476       .  S
C270        C271   1.400       .  A
C270        H274   1.084       .  S
C271        C272   1.409       .  A
C271        C309   1.485       .  S
C272        H275   1.083       .  S
O276        C292   1.278       .  A
O276       Zn282   2.023       .  S
C277        O293   1.275       .  A
C277        O290   1.280       .  A
C277        C303   1.485       .  S
O278        C291   1.267       .  A
O278       Cd285   2.048       .  S
O279        C297   1.274       .  A
O279       Cd288   2.067       .  S
O280        C294   1.285       .  A
O280      Cd1084   2.129       .  S
O281        C292   1.285       .  A
O281       Cd284   2.123       .  S
Zn282       O293   2.033       .  S
Zn282       O295   2.006       .  S
Zn282       O287   1.923       .  S
O283       C1094   1.278   1_545  A
O283       Cd288   2.071       .  S
Cd284       O286   2.113   1_545  S
Cd284      O1080   2.125   1_545  S
Cd284       O287   2.004       .  S
Cd285       O289   2.033       .  S
Cd285       O298   2.043       .  S
Cd285       O287   1.994       .  S
O286        C296   1.279       .  A
O287       Cd288   1.974       .  S
Cd288       O290   2.103       .  S
O289        C296   1.271   1_545  A
C291        C314   1.461       .  S
C291        O295   1.272       .  A
C294       O1083   1.278       .  A
C296       C1106   1.477       .  S
C297        C326   1.464       .  S
C297        O298   1.270       .  A
C299        N300   1.364       .  A
C299        N304   1.366       .  A
N300        C301   1.359       .  A
C301        N302   1.360       .  A
N302        C303   1.361       .  A
C303        N304   1.367       .  A
C305        C306   1.345       .  D
C305        H307   1.087       .  S
C306       C1096   1.479       .  S
C306        H308   1.086       .  S
C309        C310   1.350       .  D
C309        H311   1.086       .  S
C310        H312   1.087       .  S
C313        C314   1.346       .  D
C313        H315   1.086       .  S
C314        H316   1.088       .  S
C317        C318   1.349       .  D
C317        H319   1.088       .  S
C318        H320   1.085       .  S
C321        C322   1.346       .  D
C321        H323   1.087       .  S
C322        H324   1.086       .  S
C325        C326   1.346       .  D
C325        H327   1.086       .  S
C326        H328   1.088       .  S
C329        C330   1.343       .  D
C329        H331   1.086       .  S
C330        H332   1.087       .  S
C333        C334   1.334       .  D
C333        H335   1.088       .  S
C334        H336   1.088       .  S
C337        C338   1.351       .  D
C337        H339   1.087       .  S
C338        H340   1.086       .  S
C341        C742   1.353       .  D
C341        H343   1.086       .  S
C342        C741   1.355       .  D
C342        H344   1.081       .  S
C345        C346   1.354       .  D
C345        H347   1.086       .  S
C346        H348   1.084       .  S
C349        C350   1.342       .  D
C349        H351   1.089       .  S
C350        H352   1.087       .  S
C353        C945   1.467       .  S
C353        C354   1.339       .  D
C353       H1155   1.087       .  S
C354        H356   1.088       .  S
H355       C1153   1.087       .  S
C357        C358   1.350       .  D
C357        H359   1.086       .  S
C358        H360   1.087       .  S
C361        C362   1.348       .  D
C361        H363   1.087       .  S
C362        H364   1.086       .  S
C365        C366   1.346       .  D
C365        H367   1.088       .  S
C366        H368   1.086       .  S
C369        C370   1.348       .  D
C369        H371   1.086       .  S
C370        H372   1.087       .  S
C373        C374   1.349       .  D
C373        H375   1.086       .  S
C374        H376   1.087       .  S
C377        C378   1.345       .  D
C377        H379   1.088       .  S
C378        H380   1.086       .  S
C381        C382   1.349       .  D
C381        H383   1.086       .  S
C382        H384   1.087       .  S
C385        C386   1.351       .  D
C385        H387   1.088       .  S
C386        H388   1.086       .  S
C389        C790   1.352       .  D
C389        H391   1.082       .  S
C390        C789   1.351       .  D
C390        H392   1.087       .  S
C393        C394   1.354       .  D
C393        H395   1.085       .  S
C394        H396   1.086       .  S
C397        C398   1.344       .  D
C397        H399   1.086       .  S
C398        H400   1.089       .  S
C401        C402   1.407       .  A
C401        C406   1.410       .  A
C401        C798   1.477       .  S
C402        C403   1.399   1_655  A
C402        H407   1.084       .  S
C403        C404   1.397       .  A
C403        C790   1.492       .  S
C404        C405   1.404       .  A
C404        H408   1.079       .  S
C405        C406   1.410   1_455  A
C405        C794   1.495       .  S
C406        H409   1.083       .  S
O410        C426   1.277       .  A
O410       Zn416   2.023       .  S
C411        O427   1.276       .  A
O412        C425   1.269       .  A
O412       Cd419   2.058       .  S
O413        C431   1.274       .  A
O413       Cd422   2.074       .  S
O414        C428   1.286       .  A
O414       Cd418   2.133       .  S
O415        C426   1.284       .  A
O415      Cd1218   2.119       .  S
Zn416       O427   2.044       .  S
Zn416       O429   2.012       .  S
Zn416       O421   1.943       .  S
O417      Cd1222   2.089   1_545  S
Cd418      O1215   2.118   1_545  S
Cd418       O420   2.120       .  S
Cd418      O1221   2.020   1_545  S
Cd419       O423   2.034       .  S
Cd419       O421   2.003       .  S
O420        C430   1.278       .  A
O421      Cd1218   2.022       .  S
Cd422      O1217   2.074       .  S
Cd422       O424   2.107       .  S
O423       C1230   1.270       .  A
C425        C785   1.467       .  S
C425        O429   1.272       .  A
C426        C513   1.483       .  S
C430        C797   1.473       .  S
C430       O1223   1.269       .  A
C431        C781   1.466       .  S
C431        O432   1.269       .  A
C433        N434   1.368       .  A
C433        N438   1.366       .  A
N434        C435   1.367       .  A
C435        N436   1.361       .  A
N436        C437   1.361       .  A
C437        C487   1.488       .  S
C437        N438   1.362       .  A
C439        C440   1.408   1_455  A
C439        C444   1.411   1_455  A
C439        C777   1.471       .  S
C440        C441   1.394       .  A
C440        H445   1.084   1_655  S
C441        C442   1.392       .  A
C441        C773   1.477       .  S
C442        C443   1.399       .  A
C442        H446   1.084       .  S
C443        C444   1.408       .  A
C443        C786   1.485       .  S
C444        H447   1.083   1_655  S
O448        C464   1.276       .  A
O448       Zn454   2.021       .  S
C449        O465   1.278       .  A
C449        O462   1.279       .  A
C449        C473   1.482       .  S
O450        C463   1.270       .  A
O450       Cd457   2.069       .  S
O451        C469   1.274       .  A
O451       Cd460   2.067       .  S
O452        C466   1.286       .  A
O452       Cd456   2.134       .  S
O453        C464   1.285       .  A
O453       Cd456   2.129       .  S
Zn454       O465   2.048       .  S
Zn454       O467   2.002       .  S
Zn454       O459   1.936       .  S
O455        C466   1.275       .  A
O455       Cd460   2.067       .  S
Cd456       O458   2.107       .  S
Cd456       O459   2.013       .  S
Cd457       O461   2.038       .  S
Cd457       O470   2.059       .  S
Cd457       O459   2.003       .  S
O458        C468   1.278       .  A
O459       Cd460   1.985       .  S
Cd460       O462   2.089       .  S
O461        C468   1.273       .  A
C463        C793   1.465       .  S
C463        O467   1.272       .  A
C464        C551   1.487       .  S
C466        C623   1.488       .  S
C468        C778   1.476       .  S
C469        C769   1.470       .  S
C469        O470   1.272       .  A
C471        C618   1.484       .  S
C471        N472   1.365       .  A
C471        N476   1.365       .  A
N472        C473   1.365       .  A
C473        N474   1.360       .  A
N474        C475   1.359       .  A
C475        C525   1.484       .  S
C475        N476   1.360       .  A
C477        C478   1.409       .  A
C477        C482   1.409       .  A
C477        C765   1.472       .  S
C478        C479   1.397   1_655  A
C478        H483   1.084       .  S
C479        C480   1.395       .  A
C479        C770   1.485       .  S
C480        C481   1.401       .  A
C480        H484   1.079       .  S
C481        C482   1.406   1_455  A
C481        C761   1.485       .  S
C482        H485   1.083       .  S
O486        C502   1.276       .  A
O486       Zn492   2.037       .  S
C487        O503   1.279       .  A
C487        O500   1.285       .  A
O488        C501   1.267       .  A
O488       Cd495   2.039       .  S
O489        C507   1.279       .  A
O489       Cd498   2.120       .  S
O490        C504   1.277       .  A
O490       Cd494   2.067       .  S
O491        C502   1.280       .  A
O491       Cd494   2.100       .  S
Zn492       O503   2.034       .  S
Zn492       O505   2.017       .  S
Zn492       O497   1.930       .  S
O493        C504   1.286       .  A
O493       Cd498   2.131       .  S
Cd494       O496   2.073       .  S
Cd494       O497   1.978       .  S
Cd495       O499   2.041       .  S
Cd495       O508   2.019       .  S
Cd495       O497   1.985       .  S
O496        C506   1.275       .  A
O497       Cd498   2.013       .  S
Cd498       O500   2.127       .  S
O499        C506   1.269       .  A
C501        C757   1.462       .  S
C501        O505   1.274       .  A
C502        C511   1.484       .  S
C504        C699   1.485       .  S
C506        C774   1.466       .  S
C507        C766   1.478       .  S
C507        O508   1.270       .  A
C509        C694   1.483       .  S
C509        N510   1.365       .  A
C509        N514   1.363       .  A
N510        C511   1.366       .  A
C511        N512   1.362       .  A
N512        C513   1.362       .  A
C513        N514   1.358       .  A
C515        C516   1.408   1_455  A
C515        C520   1.409   1_455  A
C515        C754   1.469       .  S
C516        C517   1.395       .  A
C516       H1321   1.084       .  S
C517        C518   1.391       .  A
C517        C782   1.478       .  S
C518        C519   1.398       .  A
C518        H522   1.083       .  S
C519        C520   1.406       .  A
C519        C758   1.481       .  S
C520        H523   1.083   1_655  S
H521       C1316   1.085   1_455  S
O524        C540   1.280       .  A
O524       Zn530   2.072       .  S
C525        O541   1.277       .  A
C525        O538   1.281       .  A
O526        C539   1.268       .  A
O526       Cd533   2.051       .  S
O527        C545   1.275       .  A
O527       Cd536   2.099   1_565  S
O528       C1342   1.277   1_545  A
O528       Cd532   2.068       .  S
O529        C540   1.277       .  A
O529       Cd532   2.087       .  S
Zn530       O541   2.032       .  S
Zn530       O543   2.018       .  S
Zn530       O535   1.941       .  S
O531        C542   1.285       .  A
O531      Cd1336   2.126       .  S
Cd532       O534   2.066   1_556  S
Cd532       O535   1.989       .  S
Cd533       O537   2.051       .  S
Cd533       O546   2.035       .  S
Cd533       O535   2.004       .  S
O534        C544   1.272       .  A
O535       Cd536   2.021       .  S
Cd536      O1331   2.115   1_545  S
Cd536       O538   2.109       .  S
O537        C544   1.270   1_556  A
C539        C762   1.456       .  S
C539        O543   1.275       .  A
C540        C549   1.487       .  S
C542       O1328   1.277       .  A
C542        C661   1.486       .  S
C544        C789   1.469       .  S
C545       C1553   1.468       .  S
C545        O546   1.270   1_565  A
C547        C656   1.484       .  S
C547        N548   1.365       .  A
N548        C549   1.365       .  A
N550        C551   1.362       .  A
C551        N552   1.356       .  A
C553        C554   1.408       .  A
C553        C558   1.408       .  A
C553        C749   1.477       .  S
C554        C555   1.408       .  A
C554        H559   1.083       .  S
C555        C556   1.402       .  A
C555        C745   1.489       .  S
C556        C557   1.396       .  A
C556        H560   1.078       .  S
C557        C558   1.402       .  A
C557        C741   1.491       .  S
C558        H561   1.084       .  S
O562        C578   1.276       .  A
O562       Zn568   2.027       .  S
C563        O579   1.278       .  A
C563        O576   1.285       .  A
C563        C701   1.486       .  S
O564        C577   1.267       .  A
O564       Cd571   2.049       .  S
O565        C583   1.279       .  A
O565       Cd574   2.115       .  S
O566       Cd570   2.090       .  S
O567       Cd570   2.122       .  S
Zn568       O579   2.025       .  S
Zn568       O581   2.025       .  S
Zn568       O573   1.929       .  S
O569        C580   1.286       .  A
O569       Cd574   2.133       .  S
Cd570       O572   2.103       .  S
Cd571       O584   2.028       .  S
Cd571       O573   1.984       .  S
O572        C582   1.281       .  A
O573       Cd574   2.008       .  S
Cd574       O576   2.126       .  S
O575        C582   1.266       .  A
C577        C737   1.468       .  S
C577        O581   1.273       .  A
C582        C733   1.471       .  S
C583        C750   1.469       .  S
C583        O584   1.269       .  A
C585        N586   1.368       .  A
C585        N590   1.366       .  A
N586        C587   1.369       .  A
C587        N588   1.359       .  A
N588        C589   1.359       .  A
C589        C692   1.484       .  S
C589        N590   1.362       .  A
C591        C592   1.411       .  A
C591        C596   1.408       .  A
C591        C730   1.470       .  S
C592        C593   1.408       .  A
C592        H597   1.083       .  S
C593        C594   1.398       .  A
C593        C738   1.484       .  S
C594        C595   1.393       .  A
C594        H598   1.084       .  S
C595        C596   1.393       .  A
C595        C725   1.477       .  S
C596        H599   1.084       .  S
O600        C616   1.277       .  A
O600       Zn606   2.039       .  S
C601        O617   1.277       .  A
C601        O614   1.281       .  A
C601        C665   1.485       .  S
O602        C615   1.268       .  A
O602       Cd609   2.051       .  S
O603        C621   1.277       .  A
O603       Cd612   2.104   1_545  S
O604        C618   1.278       .  A
O604      Cd1408   2.073   1_545  S
O605        C616   1.278       .  A
O605       Cd608   2.091       .  S
Zn606       O617   2.028       .  S
Zn606       O619   2.009       .  S
Zn606       O611   1.934       .  S
O607        C618   1.283       .  A
O607       Cd612   2.118   1_545  S
Cd608      O1404   2.075       .  S
Cd608       O610   2.075       .  S
Cd608       O611   1.985       .  S
Cd609       O613   2.048       .  S
Cd609       O622   2.032       .  S
Cd609       O611   1.998       .  S
O610        C620   1.274       .  A
O611      Cd1412   2.017       .  S
Cd612      O1414   2.120       .  S
Cd612      O1411   2.016       .  S
O613        C620   1.270       .  A
O614      Cd1412   2.116       .  S
C615        C746   1.462       .  S
C615        O619   1.273       .  A
C616        C627   1.481       .  S
C620        C721   1.468       .  S
C621        C729   1.475       .  S
C621       O1422   1.272   1_545  A
O622       C1421   1.272       .  A
C623        N624   1.369       .  A
C623        N628   1.363       .  A
N624        C625   1.364       .  A
C625        C654   1.490       .  S
C625        N626   1.360       .  A
N626        C627   1.361       .  A
C627        N628   1.363       .  A
C629        C630   1.412       .  A
C629        C634   1.410       .  A
C629        C717   1.478       .  S
C630        C631   1.410       .  A
C630        H635   1.083       .  S
C631        C632   1.402       .  A
C631        C713   1.481       .  S
C632        C633   1.381       .  A
C632        H636   1.085       .  S
C633        C634   1.398       .  A
C633        C734   1.473       .  S
C634        H637   1.083       .  S
O638        C654   1.281       .  A
O638       Zn644   2.043       .  S
C639        O655   1.277       .  A
C639        O652   1.278       .  A
C639        C663   1.482       .  S
O640        C653   1.268       .  A
O640       Cd647   2.042       .  S
O641        C659   1.274       .  A
O641       Cd650   2.076   1_554  S
O642        C656   1.287       .  A
O642       Cd646   2.137       .  S
O643        C654   1.284       .  A
O643       Cd646   2.126       .  S
Zn644       O655   2.046       .  S
Zn644       O657   2.025       .  S
Zn644       O649   1.935       .  S
O645        C656   1.276       .  A
O645       Cd650   2.058       .  S
Cd646       O648   2.138       .  S
Cd646       O649   2.018       .  S
Cd647       O651   2.012       .  S
Cd647       O660   2.040       .  S
Cd647       O649   1.979       .  S
O648        C658   1.282       .  A
O649       Cd650   1.979       .  S
Cd650       O652   2.088       .  S
O651        C658   1.269       .  A
C653        C710   1.465       .  S
C653        O657   1.275       .  A
C658        C718   1.486       .  S
C659        C742   1.470       .  S
C659        O660   1.269   1_554  A
C661        N662   1.365       .  A
N662        C663   1.365       .  A
N664        C665   1.359       .  A
C665        N666   1.361       .  A
C667        C668   1.410       .  A
C667        C672   1.410       .  A
C667        C705   1.471       .  S
C668        C669   1.396       .  A
C668        H673   1.084       .  S
C669        C670   1.392       .  A
C669        C722   1.480       .  S
C670        C671   1.399       .  A
C670        H674   1.084       .  S
C671        C672   1.407       .  A
C671        C709   1.482       .  S
C672        H675   1.083       .  S
O676        C692   1.281       .  A
O676       Zn682   2.036       .  S
C677        O693   1.276       .  A
C677        O690   1.279       .  A
C677        C703   1.484       .  S
O678        C691   1.267       .  A
O678       Cd685   2.045       .  S
O679        C697   1.274       .  A
O679       Cd688   2.063       .  S
O680        C694   1.284       .  A
O680      Cd1484   2.123       .  S
O681        C692   1.284       .  A
O681       Cd684   2.115       .  S
Zn682       O693   2.038       .  S
Zn682       O695   2.016       .  S
Zn682       O687   1.920       .  S
O683       C1494   1.276   1_545  A
O683       Cd688   2.059       .  S
Cd684      O1480   2.120   1_545  S
Cd684       O686   2.112   1_545  S
Cd684       O687   2.000       .  S
Cd685       O689   2.036       .  S
Cd685       O698   2.048       .  S
Cd685       O687   1.990       .  S
O686        C696   1.278   1_565  A
O687       Cd688   1.971       .  S
Cd688       O690   2.095       .  S
O689        C696   1.272       .  A
C691        C714   1.462       .  S
C691        O695   1.274       .  A
C694       O1483   1.278       .  A
C696       C1506   1.477   1_545  S
C697        C726   1.464       .  S
C697        O698   1.271       .  A
C699        N700   1.365       .  A
C699        N704   1.365       .  A
N700        C701   1.359       .  A
C701        N702   1.360       .  A
N702        C703   1.361       .  A
C703        N704   1.366       .  A
C705        C706   1.345       .  D
C705        H707   1.087       .  S
C706       C1496   1.477       .  S
C706        H708   1.086       .  S
C709        C710   1.350       .  D
C709        H711   1.086       .  S
C710        H712   1.087       .  S
C713        C714   1.346       .  D
C713        H715   1.086       .  S
C714        H716   1.088       .  S
C717        C718   1.351       .  D
C717        H719   1.087       .  S
C718        H720   1.085       .  S
C721        C722   1.349       .  D
C721        H723   1.087       .  S
C722        H724   1.086       .  S
C725        C726   1.346       .  D
C725        H727   1.086       .  S
C726        H728   1.088       .  S
C729        C730   1.344       .  D
C729        H731   1.086       .  S
C730        H732   1.088       .  S
C733        C734   1.334       .  D
C733        H735   1.088       .  S
C734        H736   1.088       .  S
C737        C738   1.351       .  D
C737        H739   1.087       .  S
C738        H740   1.086       .  S
C741        H743   1.086       .  S
C742        H744   1.079       .  S
C745        C746   1.354       .  D
C745        H747   1.086       .  S
C746        H748   1.084       .  S
C749        C750   1.343       .  D
C749        H751   1.089       .  S
C750        H752   1.087       .  S
C753       C1345   1.475       .  S
C753        C754   1.344       .  D
C753       H1555   1.086       .  S
C754        H756   1.088       .  S
H755       C1553   1.087       .  S
C757        C758   1.349       .  D
C757        H759   1.087       .  S
C758        H760   1.086       .  S
C761        C762   1.348       .  D
C761        H763   1.087       .  S
C762        H764   1.086       .  S
C765        C766   1.346       .  D
C765        H767   1.088       .  S
C766        H768   1.086       .  S
C769        C770   1.347       .  D
C769        H771   1.086       .  S
C770        H772   1.087       .  S
C773        C774   1.347       .  D
C773        H775   1.086       .  S
C774        H776   1.088       .  S
C777        C778   1.344       .  D
C777        H779   1.088       .  S
C778        H780   1.086       .  S
C781        C782   1.348       .  D
C781        H783   1.087       .  S
C782        H784   1.086       .  S
C785        C786   1.350       .  D
C785        H787   1.087       .  S
C786        H788   1.086       .  S
C789        H791   1.081       .  S
C790        H792   1.087       .  S
C793        C794   1.354       .  D
C793        H795   1.084       .  S
C794        H796   1.086       .  S
C797        C798   1.344       .  D
C797        H799   1.086       .  S
C798        H800   1.088       .  S
C801        C802   1.406       .  A
C801        C806   1.409       .  A
C801       C1198   1.475       .  S
C802        C803   1.399   1_655  A
C802        H807   1.085       .  S
C803        C804   1.399       .  A
C803       C1190   1.492       .  S
C804        C805   1.403       .  A
C804        H808   1.076       .  S
C805        C806   1.409   1_455  A
C805       C1194   1.493       .  S
C806        H809   1.083       .  S
O810        C826   1.277       .  A
O810       Zn816   2.023       .  S
C811        O827   1.276   1_556  A
C811       O1224   1.283       .  A
C811       C1235   1.493       .  S
O812        C825   1.268       .  A
O812       Cd819   2.051       .  S
O813        C831   1.275       .  A
O813       Cd822   2.077       .  S
O814        C828   1.284   1_554  A
O814       Cd818   2.128       .  S
O815        C826   1.285       .  A
Zn816       O827   2.045       .  S
Zn816       O829   2.013       .  S
Zn816       O821   1.942       .  S
O817       C1228   1.281       .  A
Cd818       O820   2.110       .  S
Cd819       O823   2.025   1_565  S
Cd819      O1232   2.023   1_554  S
Cd819       O821   1.999       .  S
O820        C830   1.277       .  A
O821      Cd1222   1.995   1_554  S
Cd822       O824   2.119       .  S
Cd822      O1221   1.992       .  S
O824       C1211   1.282       .  A
C825       C1185   1.465       .  S
C825        O829   1.272       .  A
C826        C913   1.485       .  S
C828       O1217   1.278       .  A
C828       C1385   1.488       .  S
C830       C1197   1.472       .  S
C831       C1181   1.463       .  S
C831        O832   1.268       .  A
O832      Cd1219   2.022       .  S
C833       C1380   1.498       .  S
C833        N834   1.370       .  A
C833        N838   1.367       .  A
N834        C835   1.370       .  A
C835       C1211   1.494       .  S
C835        N836   1.362       .  A
N836        C837   1.362       .  A
C837        C887   1.491       .  S
C837        N838   1.363       .  A
C839        C840   1.409   1_455  A
C839        C844   1.410   1_455  A
C839       C1177   1.469       .  S
C840        C841   1.394       .  A
C840        H845   1.084   1_655  S
C841        C842   1.392       .  A
C841       C1173   1.477       .  S
C842        C843   1.398       .  A
C842        H846   1.084       .  S
C843        C844   1.407       .  A
C843       C1186   1.483       .  S
C844        H847   1.083   1_655  S
O848        C864   1.277       .  A
O848       Zn854   2.031       .  S
C849        O865   1.279       .  A
C849        O862   1.279       .  A
C849        C873   1.485       .  S
O850        C863   1.270       .  A
O850       Cd857   2.064       .  S
O851        C869   1.274       .  A
O851       Cd860   2.070       .  S
O852        C866   1.284       .  A
O852       Cd856   2.118       .  S
O853        C864   1.284       .  A
O853       Cd856   2.127       .  S
Zn854       O865   2.055       .  S
Zn854       O867   2.008       .  S
Zn854       O859   1.938       .  S
O855        C866   1.276       .  A
O855       Cd860   2.069       .  S
Cd856       O858   2.102       .  S
Cd856       O859   2.016       .  S
Cd857       O861   2.035       .  S
Cd857       O870   2.059       .  S
Cd857       O859   2.004       .  S
O858        C868   1.277       .  A
O859       Cd860   1.987       .  S
Cd860       O862   2.094       .  S
O861        C868   1.272       .  A
C863       C1193   1.465       .  S
C863        O867   1.273       .  A
C864        C951   1.489       .  S
C866       C1023   1.483       .  S
C868       C1178   1.474       .  S
C869       C1169   1.471       .  S
C869        O870   1.271       .  A
C871       C1018   1.483       .  S
C871        N872   1.366       .  A
C871        N876   1.364       .  A
N872        C873   1.365       .  A
C873        N874   1.361       .  A
N874        C875   1.361       .  A
C875        C925   1.484       .  S
C875        N876   1.359       .  A
C877        C878   1.410       .  A
C877        C882   1.408       .  A
C877       C1165   1.472       .  S
C878        C879   1.398   1_655  A
C878        H883   1.084       .  S
C879        C880   1.395       .  A
C879       C1170   1.486       .  S
C880        C881   1.401       .  A
C880        H884   1.080       .  S
C881        C882   1.406   1_455  A
C881       C1161   1.486       .  S
C882        H885   1.083       .  S
O886        C902   1.277       .  A
O886       Zn892   2.045       .  S
C887        O903   1.281       .  A
C887        O900   1.285       .  A
O888        C901   1.266       .  A
O888       Cd895   2.031       .  S
O889        C907   1.279       .  A
O889       Cd898   2.122       .  S
O890        C904   1.278       .  A
O890       Cd894   2.074       .  S
O891        C902   1.280       .  A
O891       Cd894   2.104       .  S
Zn892       O903   2.045       .  S
Zn892       O905   2.031       .  S
Zn892       O897   1.939       .  S
O893        C904   1.285       .  A
O893       Cd898   2.131       .  S
Cd894       O896   2.078       .  S
Cd894       O897   1.984       .  S
Cd895       O899   2.037       .  S
Cd895       O908   2.014       .  S
Cd895       O897   1.985       .  S
O896        C906   1.275       .  A
O897       Cd898   2.017       .  S
Cd898       O900   2.129       .  S
O899        C906   1.269       .  A
C901       C1157   1.465       .  S
C901        O905   1.275       .  A
C902        C911   1.486       .  S
C904       C1099   1.487       .  S
C906       C1174   1.466       .  S
C907       C1166   1.478       .  S
C907        O908   1.268       .  A
C909       C1094   1.485       .  S
C909        N910   1.365       .  A
C909        N914   1.364       .  A
N910        C911   1.366       .  A
C911        N912   1.362       .  A
N912        C913   1.362       .  A
C913        N914   1.359       .  A
C915        C916   1.404   1_455  A
C915        C920   1.407       .  A
C915       C1154   1.471       .  S
C916        C917   1.394       .  A
C917        C918   1.395       .  A
C917       C1182   1.479       .  S
C918        C919   1.402       .  A
C918        H922   1.078       .  S
C919        C920   1.408   1_655  A
C919       C1158   1.484       .  S
C920        H923   1.084       .  S
O924        C940   1.279       .  A
O924       Zn930   2.060       .  S
C925        O941   1.276       .  A
C925        O938   1.282       .  A
O926        C939   1.267       .  A
O926       Cd933   2.052       .  S
O927        C945   1.276       .  A
O927       Cd936   2.100       .  S
O928       Cd932   2.074       .  S
O929        C940   1.279       .  A
O929       Cd932   2.093       .  S
Zn930       O941   2.024       .  S
Zn930       O943   2.012       .  S
Zn930       O935   1.942       .  S
O931        C942   1.282       .  A
Cd932       O934   2.073       .  S
Cd932       O935   1.989       .  S
Cd933       O937   2.050       .  S
Cd933       O946   2.034       .  S
Cd933       O935   2.004       .  S
O934        C944   1.274       .  A
O935       Cd936   2.021       .  S
Cd936       O938   2.113       .  S
O937        C944   1.270       .  A
C939       C1162   1.456       .  S
C939        O943   1.273       .  A
C940        C949   1.486       .  S
C942       C1061   1.480       .  S
C944       C1189   1.471       .  S
C945        O946   1.270       .  A
C947       C1056   1.484       .  S
C947        N948   1.366       .  A
C947       N1352   1.366       .  A
N948        C949   1.366       .  A
C949       N1350   1.363       .  A
N950       C1349   1.362   1_554  A
N950        C951   1.360       .  A
C951        N952   1.359       .  A
N952       C1347   1.367   1_554  A
C953        C954   1.409       .  A
C953        C958   1.407       .  A
C953       C1149   1.477       .  S
C954        C955   1.409       .  A
C954        H959   1.083       .  S
C955        C956   1.401       .  A
C955       C1145   1.492       .  S
C956        C957   1.397       .  A
C956        H960   1.078       .  S
C957        C958   1.401       .  A
C957       C1141   1.491       .  S
C958        H961   1.084       .  S
O962        C978   1.276   1_554  A
O962       Zn968   2.026       .  S
C963        O979   1.278       .  A
C963        O976   1.285       .  A
C963       C1101   1.486       .  S
O964        C977   1.268       .  A
O964       Cd971   2.053       .  S
O965        C983   1.279       .  A
O965       Cd974   2.114       .  S
O966       C1380   1.282       .  A
O966       Cd970   2.104       .  S
O967       C1378   1.287       .  A
O967       Cd970   2.138       .  S
Zn968       O979   2.027       .  S
Zn968       O981   2.024       .  S
Zn968       O973   1.930       .  S
O969        C980   1.285   1_554  A
O969       Cd974   2.133       .  S
Cd970       O972   2.107       .  S
Cd970      O1373   1.988       .  S
Cd971      O1375   2.024   1_554  S
Cd971       O984   2.028       .  S
Cd971       O973   1.985       .  S
O972        C982   1.282       .  A
O973      Cd1370   1.986   1_554  S
O973       Cd974   2.009       .  S
Cd974       O976   2.123       .  S
O975        C982   1.266       .  A
O975      Cd1371   2.024       .  S
C977       C1137   1.469       .  S
C977        O981   1.273       .  A
C978       O1367   1.285       .  A
C978       C1387   1.486       .  S
C980       O1366   1.281       .  A
C980       C1233   1.496       .  S
C982       C1133   1.472       .  S
C983       C1150   1.469       .  S
C983        O984   1.269       .  A
C985       C1228   1.495       .  S
C985        N986   1.369       .  A
C985        N990   1.365       .  A
N986        C987   1.371       .  A
C987       C1378   1.493       .  S
C987        N988   1.361       .  A
N988        C989   1.362       .  A
C989       C1092   1.486       .  S
C989        N990   1.361       .  A
C991        C992   1.412       .  A
C991        C996   1.406       .  A
C991       C1130   1.469       .  S
C992        C993   1.409       .  A
C992        H997   1.083       .  S
C993        C994   1.399       .  A
C993       C1138   1.485       .  S
C994        C995   1.393       .  A
C994        H998   1.084       .  S
C995        C996   1.391       .  A
C995       C1125   1.474       .  S
C996        H999   1.084       .  S
O1000      C1016   1.277       .  A
O1000     Zn1006   2.039       .  S
C1001      O1017   1.277       .  A
C1001      O1014   1.283       .  A
C1001      C1065   1.484       .  S
O1002      C1015   1.267       .  A
O1002     Cd1009   2.051       .  S
O1003      C1021   1.276       .  A
O1003     Cd1012   2.099       .  S
O1004      C1018   1.278       .  A
O1005      C1016   1.278       .  A
O1005     Cd1008   2.091       .  S
Zn1006     O1017   2.025       .  S
Zn1006     O1019   2.019       .  S
Zn1006     O1011   1.937       .  S
O1007      C1018   1.282       .  A
O1007     Cd1012   2.113       .  S
Cd1008     O1010   2.069       .  S
Cd1008     O1011   1.987       .  S
Cd1009     O1013   2.044       .  S
Cd1009     O1022   2.036       .  S
Cd1009     O1011   1.999       .  S
O1010      C1020   1.274       .  A
O1013      C1020   1.269       .  A
C1015      C1146   1.466       .  S
C1015      O1019   1.273       .  A
C1016      C1027   1.480       .  S
C1020      C1121   1.465       .  S
C1021      C1129   1.475       .  S
C1023      N1024   1.367       .  A
C1023      N1028   1.363       .  A
N1024      C1025   1.363       .  A
C1025      C1054   1.487       .  S
C1025      N1026   1.361       .  A
N1026      C1027   1.361       .  A
C1027      N1028   1.362       .  A
C1029      C1030   1.413       .  A
C1029      C1034   1.410       .  A
C1029      C1117   1.480       .  S
C1030      C1031   1.412       .  A
C1030      H1035   1.083       .  S
C1031      C1032   1.402       .  A
C1031      C1113   1.485       .  S
C1032      C1033   1.381       .  A
C1032      H1036   1.085       .  S
C1033      C1034   1.398       .  A
C1033      C1134   1.474       .  S
C1034      H1037   1.084       .  S
O1038      C1054   1.280       .  A
O1038     Zn1044   2.038       .  S
C1039      O1055   1.277       .  A
C1039      O1052   1.278       .  A
C1039      C1063   1.483       .  S
O1040      C1053   1.268       .  A
O1040     Cd1047   2.044       .  S
O1041      C1059   1.275       .  A
O1041     Cd1050   2.080       .  S
O1042      C1056   1.287       .  A
O1042     Cd1046   2.137       .  S
O1043      C1054   1.284       .  A
O1043     Cd1046   2.122       .  S
Zn1044     O1055   2.043       .  S
Zn1044     O1057   2.022       .  S
Zn1044     O1049   1.939       .  S
O1045      C1056   1.277       .  A
O1045     Cd1050   2.060       .  S
Cd1046     O1048   2.142       .  S
Cd1046     O1049   2.021       .  S
Cd1047     O1051   2.017       .  S
Cd1047     O1060   2.042       .  S
Cd1047     O1049   1.982       .  S
O1048      C1058   1.283       .  A
O1049     Cd1050   1.981       .  S
Cd1050     O1052   2.091       .  S
O1051      C1058   1.270       .  A
C1053      C1110   1.466       .  S
C1053      O1057   1.274       .  A
C1058      C1118   1.489       .  S
C1059      C1142   1.473       .  S
C1059      O1060   1.269       .  A
C1061      N1062   1.365       .  A
C1061      N1466   1.364       .  A
N1062      C1063   1.364       .  A
C1063      N1464   1.361       .  A
N1064      C1463   1.360   1_554  A
N1064      C1065   1.359       .  A
C1065      N1066   1.360       .  A
N1066      C1461   1.366   1_554  A
C1067      C1068   1.409       .  A
C1067      C1072   1.410       .  A
C1067      C1105   1.471       .  S
C1068      C1069   1.396       .  A
C1068      H1073   1.084       .  S
C1069      C1070   1.392       .  A
C1069      C1122   1.479       .  S
C1070      C1071   1.398       .  A
C1070      H1074   1.084       .  S
C1071      C1072   1.407       .  A
C1071      C1109   1.482       .  S
C1072      H1075   1.083       .  S
O1076      C1092   1.280       .  A
O1076     Zn1082   2.032       .  S
C1077      O1093   1.276       .  A
C1077      O1090   1.280       .  A
C1077      C1103   1.486       .  S
O1078      C1091   1.267       .  A
O1078     Cd1085   2.051       .  S
O1079      C1097   1.274       .  A
O1079     Cd1088   2.062       .  S
O1080      C1094   1.285       .  A
O1081      C1092   1.286       .  A
O1081     Cd1084   2.124       .  S
Zn1082     O1093   2.039       .  S
Zn1082     O1095   2.016       .  S
Zn1082     O1087   1.924       .  S
O1083     Cd1088   2.071       .  S
Cd1084     O1086   2.115       .  S
Cd1084     O1087   2.004       .  S
Cd1085     O1089   2.040       .  S
Cd1085     O1098   2.041       .  S
Cd1085     O1087   1.994       .  S
O1086      C1096   1.279       .  A
O1087     Cd1088   1.975       .  S
Cd1088     O1090   2.102       .  S
O1089      C1096   1.272       .  A
C1091      C1114   1.465       .  S
C1091      O1095   1.274       .  A
C1097      C1126   1.462       .  S
C1097      O1098   1.271       .  A
C1099      N1100   1.365       .  A
C1099      N1104   1.366       .  A
N1100      C1101   1.360       .  A
C1101      N1102   1.361       .  A
N1102      C1103   1.361       .  A
C1103      N1104   1.367       .  A
C1105      C1106   1.345       .  D
C1105      H1107   1.087   1_565  S
C1106      H1108   1.086       .  S
C1109      C1110   1.350       .  D
C1109      H1111   1.086       .  S
C1110      H1112   1.087       .  S
C1113      C1114   1.348       .  D
C1113      H1115   1.086       .  S
C1114      H1116   1.088       .  S
C1117      C1118   1.352       .  D
C1117      H1119   1.087       .  S
C1118      H1120   1.085       .  S
C1121      C1122   1.348       .  D
C1121      H1123   1.087       .  S
C1122      H1124   1.086       .  S
C1125      C1126   1.345       .  D
C1125      H1127   1.086       .  S
C1126      H1128   1.088       .  S
C1129      C1130   1.343       .  D
C1129      H1131   1.086       .  S
C1130      H1132   1.088       .  S
C1133      C1134   1.334       .  D
C1133      H1135   1.088       .  S
C1134      H1136   1.088       .  S
C1137      C1138   1.351       .  D
C1137      H1139   1.088       .  S
C1138      H1140   1.086       .  S
C1141      C1542   1.353       .  D
C1141      H1143   1.086       .  S
C1142      C1541   1.353       .  D
C1142      H1144   1.080       .  S
C1145      C1146   1.356       .  D
C1145      H1147   1.086       .  S
C1146      H1148   1.084       .  S
C1149      C1150   1.343       .  D
C1149      H1151   1.089       .  S
C1150      H1152   1.087       .  S
C1153      C1154   1.338       .  D
C1154      H1156   1.089       .  S
C1157      C1158   1.350       .  D
C1157      H1159   1.086       .  S
C1158      H1160   1.087       .  S
C1161      C1162   1.348       .  D
C1161      H1163   1.087       .  S
C1162      H1164   1.086       .  S
C1165      C1166   1.346       .  D
C1165      H1167   1.088       .  S
C1166      H1168   1.086       .  S
C1169      C1170   1.348       .  D
C1169      H1171   1.087       .  S
C1170      H1172   1.087       .  S
C1173      C1174   1.348       .  D
C1173      H1175   1.086       .  S
C1174      H1176   1.088       .  S
C1177      C1178   1.343       .  D
C1177      H1179   1.088       .  S
C1178      H1180   1.086       .  S
C1181      C1182   1.348       .  D
C1181      H1183   1.085       .  S
C1182      H1184   1.087       .  S
C1185      C1186   1.350       .  D
C1185      H1187   1.087       .  S
C1186      H1188   1.086       .  S
C1189      C1590   1.352       .  D
C1189      H1191   1.081       .  S
C1190      C1589   1.351       .  D
C1190      H1192   1.087       .  S
C1193      C1194   1.354       .  D
C1193      H1195   1.084       .  S
C1194      H1196   1.086       .  S
C1197      C1198   1.343       .  D
C1197      H1199   1.086       .  S
C1198      H1200   1.089       .  S
C1201      C1202   1.406       .  A
C1201      C1206   1.410       .  A
C1201      C1598   1.478       .  S
C1202      C1203   1.399   1_655  A
C1202      H1207   1.084       .  S
C1203      C1204   1.398       .  A
C1203      C1590   1.492       .  S
C1204      C1205   1.405       .  A
C1204      H1208   1.078       .  S
C1205      C1206   1.410   1_455  A
C1205      C1594   1.496       .  S
C1206      H1209   1.083       .  S
O1210      C1226   1.278       .  A
O1210     Zn1216   2.029       .  S
C1211      O1227   1.276       .  A
O1212      C1225   1.268       .  A
O1212     Cd1219   2.052       .  S
O1213      C1231   1.275       .  A
O1213     Cd1222   2.081       .  S
O1214      C1228   1.286       .  A
O1214     Cd1218   2.137       .  S
O1215      C1226   1.285       .  A
Zn1216     O1227   2.052       .  S
Zn1216     O1229   2.020       .  S
Zn1216     O1221   1.939       .  S
Cd1218     O1220   2.117       .  S
Cd1219     O1223   2.027   1_565  S
Cd1219     O1221   1.997       .  S
O1220      C1230   1.278       .  A
Cd1222     O1224   2.123       .  S
C1225      C1585   1.467       .  S
C1225      O1229   1.274       .  A
C1226      C1313   1.484       .  S
C1230      C1597   1.474       .  S
C1231      C1581   1.465       .  S
C1231      O1232   1.267       .  A
C1233      N1234   1.369       .  A
C1233      N1238   1.367       .  A
N1234      C1235   1.369       .  A
C1235      N1236   1.361       .  A
N1236      C1237   1.362       .  A
C1237      C1287   1.488       .  S
C1237      N1238   1.363       .  A
C1239      C1240   1.407   1_455  A
C1239      C1244   1.414   1_455  A
C1239      C1577   1.473       .  S
C1240      C1241   1.392       .  A
C1240      H1245   1.084   1_655  S
C1241      C1242   1.390       .  A
C1241      C1573   1.473       .  S
C1242      C1243   1.398       .  A
C1242      H1246   1.085       .  S
C1243      C1244   1.411       .  A
C1243      C1586   1.486       .  S
C1244      H1247   1.083   1_655  S
O1248      C1264   1.277       .  A
O1248     Zn1254   2.030       .  S
C1249      O1265   1.279       .  A
C1249      O1262   1.280       .  A
C1249      C1273   1.489       .  S
O1250      C1263   1.271       .  A
O1250     Cd1257   2.072       .  S
O1251      C1269   1.274       .  A
O1251     Cd1260   2.067       .  S
O1252      C1266   1.287       .  A
O1252     Cd1256   2.138       .  S
O1253      C1264   1.286       .  A
O1253     Cd1256   2.133       .  S
Zn1254     O1265   2.060       .  S
Zn1254     O1267   2.003       .  S
Zn1254     O1259   1.937       .  S
O1255      C1266   1.277       .  A
O1255     Cd1260   2.074       .  S
Cd1256     O1258   2.111       .  S
Cd1256     O1259   2.015       .  S
Cd1257     O1261   2.046       .  S
Cd1257     O1270   2.062       .  S
Cd1257     O1259   2.007       .  S
O1258      C1268   1.278       .  A
O1259     Cd1260   1.989       .  S
Cd1260     O1262   2.100       .  S
O1261      C1268   1.273       .  A
C1263      C1593   1.467       .  S
C1263      O1267   1.272       .  A
C1264      C1351   1.490       .  S
C1266      C1423   1.491       .  S
C1268      C1578   1.479       .  S
C1269      C1569   1.471       .  S
C1269      O1270   1.273       .  A
C1271      C1418   1.482       .  S
C1271      N1272   1.367       .  A
C1271      N1276   1.364       .  A
N1272      C1273   1.365       .  A
C1273      N1274   1.362       .  A
N1274      C1275   1.362       .  A
C1275      C1325   1.485       .  S
C1275      N1276   1.358       .  A
C1277      C1278   1.409       .  A
C1277      C1282   1.410       .  A
C1277      C1565   1.473       .  S
C1278      C1279   1.398   1_655  A
C1278      H1283   1.084       .  S
C1279      C1280   1.396       .  A
C1279      C1570   1.488       .  S
C1280      C1281   1.402       .  A
C1280      H1284   1.078       .  S
C1281      C1282   1.408   1_455  A
C1281      C1561   1.491       .  S
C1282      H1285   1.083       .  S
O1286      C1302   1.277       .  A
O1286     Zn1292   2.043       .  S
C1287      O1303   1.280       .  A
C1287      O1300   1.285       .  A
O1288      C1301   1.266       .  A
O1288     Cd1295   2.032       .  S
O1289      C1307   1.279       .  A
O1289     Cd1298   2.123       .  S
O1290      C1304   1.278       .  A
O1290     Cd1294   2.070       .  S
O1291      C1302   1.278       .  A
O1291     Cd1294   2.092       .  S
Zn1292     O1303   2.037       .  S
Zn1292     O1305   2.031       .  S
Zn1292     O1297   1.939       .  S
O1293      C1304   1.285       .  A
O1293     Cd1298   2.129       .  S
Cd1294     O1296   2.071       .  S
Cd1294     O1297   1.986       .  S
Cd1295     O1299   2.027       .  S
Cd1295     O1308   2.014       .  S
Cd1295     O1297   1.983       .  S
O1296      C1306   1.273       .  A
O1297     Cd1298   2.021       .  S
Cd1298     O1300   2.123       .  S
O1299      C1306   1.268       .  A
C1301      C1557   1.465       .  S
C1301      O1305   1.275       .  A
C1302      C1311   1.482       .  S
C1304      C1499   1.486       .  S
C1306      C1574   1.463       .  S
C1307      C1566   1.478       .  S
C1307      O1308   1.268       .  A
C1309      C1494   1.480       .  S
C1309      N1310   1.363       .  A
C1309      N1314   1.364       .  A
N1310      C1311   1.364       .  A
C1311      N1312   1.362       .  A
N1312      C1313   1.361       .  A
C1313      N1314   1.359       .  A
C1315      C1316   1.405   1_455  A
C1315      C1320   1.408       .  A
C1315      C1554   1.472       .  S
C1316      C1317   1.395       .  A
C1317      C1318   1.395       .  A
C1317      C1582   1.480       .  S
C1318      C1319   1.401       .  A
C1318      H1322   1.078       .  S
C1319      C1320   1.408   1_655  A
C1319      C1558   1.486       .  S
C1320      H1323   1.084       .  S
O1324      C1340   1.279       .  A
O1324     Zn1330   2.056       .  S
C1325      O1341   1.276       .  A
C1325      O1338   1.284       .  A
O1326      C1339   1.267       .  A
O1326     Cd1333   2.057       .  S
O1327      C1345   1.277       .  A
O1327     Cd1336   2.108       .  S
O1328     Cd1332   2.072       .  S
O1329      C1340   1.279       .  A
O1329     Cd1332   2.091       .  S
Zn1330     O1341   2.017       .  S
Zn1330     O1343   2.011       .  S
Zn1330     O1335   1.935       .  S
O1331      C1342   1.283       .  A
Cd1332     O1334   2.072   1_556  S
Cd1332     O1335   1.984       .  S
Cd1333     O1337   2.046       .  S
Cd1333     O1346   2.028       .  S
Cd1333     O1335   1.994       .  S
O1334      C1344   1.274   1_554  A
O1335     Cd1336   2.018       .  S
Cd1336     O1338   2.125       .  S
O1337      C1344   1.270       .  A
C1339      C1562   1.459       .  S
C1339      O1343   1.273       .  A
C1340      C1349   1.484       .  S
C1342      C1461   1.482       .  S
C1344      C1589   1.470   1_556  S
C1345      O1346   1.271       .  A
C1347      C1456   1.486       .  S
C1347      N1348   1.366       .  A
N1348      C1349   1.366       .  A
N1350      C1351   1.362       .  A
C1351      N1352   1.358       .  A
C1353      C1354   1.407       .  A
C1353      C1358   1.408       .  A
C1353      C1549   1.476       .  S
C1354      C1355   1.406       .  A
C1354      H1359   1.084       .  S
C1355      C1356   1.403       .  A
C1355      C1545   1.488       .  S
C1356      C1357   1.397       .  A
C1356      H1360   1.077       .  S
C1357      C1358   1.402       .  A
C1357      C1541   1.492       .  S
C1358      H1361   1.084       .  S
O1362      C1378   1.276       .  A
O1362     Zn1368   2.031       .  S
C1363      O1379   1.277       .  A
C1363      O1376   1.286       .  A
C1363      C1501   1.484       .  S
O1364      C1377   1.267       .  A
O1364     Cd1371   2.041       .  S
O1365      C1383   1.278       .  A
O1365     Cd1374   2.117       .  S
O1366     Cd1370   2.099       .  S
O1367     Cd1370   2.122       .  S
Zn1368     O1379   2.020       .  S
Zn1368     O1381   2.019       .  S
Zn1368     O1373   1.933       .  S
O1369      C1380   1.286       .  A
O1369     Cd1374   2.136       .  S
Cd1370     O1372   2.101       .  S
Cd1371     O1384   2.027       .  S
Cd1371     O1373   1.984       .  S
O1372      C1382   1.281       .  A
O1373     Cd1374   2.011       .  S
Cd1374     O1376   2.126       .  S
O1375      C1382   1.266       .  A
C1377      C1537   1.465       .  S
C1377      O1381   1.273       .  A
C1382      C1533   1.471       .  S
C1383      C1550   1.468       .  S
C1383      O1384   1.268       .  A
C1385      N1386   1.366       .  A
C1385      N1390   1.363       .  A
N1386      C1387   1.368       .  A
C1387      N1388   1.360       .  A
N1388      C1389   1.360       .  A
C1389      C1492   1.481       .  S
C1389      N1390   1.359       .  A
C1391      C1392   1.409       .  A
C1391      C1396   1.408       .  A
C1391      C1530   1.467       .  S
C1392      C1393   1.406       .  A
C1392      H1397   1.083       .  S
C1393      C1394   1.398       .  A
C1393      C1538   1.480       .  S
C1394      C1395   1.393       .  A
C1394      H1398   1.084       .  S
C1395      C1396   1.393       .  A
C1395      C1525   1.475       .  S
C1396      H1399   1.084       .  S
O1400      C1416   1.276       .  A
O1400     Zn1406   2.034       .  S
C1401      O1417   1.275       .  A
C1401      O1414   1.283       .  A
C1401      C1465   1.483       .  S
O1402      C1415   1.268       .  A
O1402     Cd1409   2.051       .  S
O1403      C1421   1.277       .  A
O1403     Cd1412   2.099       .  S
O1404      C1418   1.278       .  A
O1405      C1416   1.279       .  A
O1405     Cd1408   2.096       .  S
Zn1406     O1417   2.014       .  S
Zn1406     O1419   1.996       .  S
Zn1406     O1411   1.933       .  S
O1407      C1418   1.282       .  A
O1407     Cd1412   2.111       .  S
Cd1408     O1410   2.068       .  S
Cd1408     O1411   1.984       .  S
Cd1409     O1413   2.049       .  S
Cd1409     O1422   2.035       .  S
Cd1409     O1411   1.999       .  S
O1410      C1420   1.273       .  A
O1413      C1420   1.270       .  A
C1415      C1546   1.459       .  S
C1415      O1419   1.271       .  A
C1416      C1427   1.482       .  S
C1420      C1521   1.466       .  S
C1421      C1529   1.473       .  S
C1423      N1424   1.370       .  A
C1423      N1428   1.364       .  A
N1424      C1425   1.365       .  A
C1425      C1454   1.492       .  S
C1425      N1426   1.360       .  A
N1426      C1427   1.360       .  A
C1427      N1428   1.364       .  A
C1429      C1430   1.414       .  A
C1429      C1434   1.410       .  A
C1429      C1517   1.480       .  S
C1430      C1431   1.412       .  A
C1430      H1435   1.083       .  S
C1431      C1432   1.402       .  A
C1431      C1513   1.484       .  S
C1432      C1433   1.381       .  A
C1432      H1436   1.085       .  S
C1433      C1434   1.398       .  A
C1433      C1534   1.473       .  S
C1434      H1437   1.083       .  S
O1438      C1454   1.282       .  A
O1438     Zn1444   2.049       .  S
C1439      O1455   1.277       .  A
C1439      O1452   1.278       .  A
C1439      C1463   1.483       .  S
O1440      C1453   1.269       .  A
O1440     Cd1447   2.050       .  S
O1441      C1459   1.274       .  A
O1441     Cd1450   2.074   1_554  S
O1442      C1456   1.287       .  A
O1442     Cd1446   2.139       .  S
O1443      C1454   1.285       .  A
O1443     Cd1446   2.129       .  S
Zn1444     O1455   2.049       .  S
Zn1444     O1457   2.028       .  S
Zn1444     O1449   1.939       .  S
O1445      C1456   1.276       .  A
O1445     Cd1450   2.059       .  S
Cd1446     O1448   2.136       .  S
Cd1446     O1449   2.020       .  S
Cd1447     O1451   2.024       .  S
Cd1447     O1460   2.047       .  S
Cd1447     O1449   1.985       .  S
O1448      C1458   1.282       .  A
O1449     Cd1450   1.980       .  S
Cd1450     O1452   2.087       .  S
O1451      C1458   1.271       .  A
C1453      C1510   1.468       .  S
C1453      O1457   1.275       .  A
C1458      C1518   1.488       .  S
C1459      C1542   1.470       .  S
C1459      O1460   1.269   1_554  A
C1461      N1462   1.365       .  A
N1462      C1463   1.364       .  A
N1464      C1465   1.361       .  A
C1465      N1466   1.359       .  A
C1467      C1468   1.408       .  A
C1467      C1472   1.411       .  A
C1467      C1505   1.472       .  S
C1468      C1469   1.395       .  A
C1468      H1473   1.084       .  S
C1469      C1470   1.393       .  A
C1469      C1522   1.480       .  S
C1470      C1471   1.399       .  A
C1470      H1474   1.084       .  S
C1471      C1472   1.408       .  A
C1471      C1509   1.484       .  S
C1472      H1475   1.083       .  S
O1476      C1492   1.279       .  A
O1476     Zn1482   2.028       .  S
C1477      O1493   1.276       .  A
C1477      O1490   1.280       .  A
C1477      C1503   1.487       .  S
O1478      C1491   1.267       .  A
O1478     Cd1485   2.049       .  S
O1479      C1497   1.275       .  A
O1479     Cd1488   2.066       .  S
O1480      C1494   1.284       .  A
O1481      C1492   1.285       .  A
O1481     Cd1484   2.113       .  S
Zn1482     O1493   2.038       .  S
Zn1482     O1495   2.016       .  S
Zn1482     O1487   1.920       .  S
O1483     Cd1488   2.069       .  S
Cd1484     O1486   2.111       .  S
Cd1484     O1487   2.003       .  S
Cd1485     O1489   2.032       .  S
Cd1485     O1498   2.042       .  S
Cd1485     O1487   1.990       .  S
O1486      C1496   1.278       .  A
O1487     Cd1488   1.971       .  S
Cd1488     O1490   2.105       .  S
O1489      C1496   1.271       .  A
C1491      C1514   1.464       .  S
C1491      O1495   1.274       .  A
C1497      C1526   1.463       .  S
C1497      O1498   1.271       .  A
C1499      N1500   1.364       .  A
C1499      N1504   1.367       .  A
N1500      C1501   1.358       .  A
C1501      N1502   1.361       .  A
N1502      C1503   1.362       .  A
C1503      N1504   1.367       .  A
C1505      C1506   1.345       .  D
C1505      H1507   1.087   1_565  S
C1506      H1508   1.086       .  S
C1509      C1510   1.351       .  D
C1509      H1511   1.086       .  S
C1510      H1512   1.087       .  S
C1513      C1514   1.348       .  D
C1513      H1515   1.086       .  S
C1514      H1516   1.088       .  S
C1517      C1518   1.350       .  D
C1517      H1519   1.087       .  S
C1518      H1520   1.085       .  S
C1521      C1522   1.348       .  D
C1521      H1523   1.087       .  S
C1522      H1524   1.086       .  S
C1525      C1526   1.346       .  D
C1525      H1527   1.086       .  S
C1526      H1528   1.088       .  S
C1529      C1530   1.342       .  D
C1529      H1531   1.086       .  S
C1530      H1532   1.088       .  S
C1533      C1534   1.334       .  D
C1533      H1535   1.088       .  S
C1534      H1536   1.088       .  S
C1537      C1538   1.350       .  D
C1537      H1539   1.087       .  S
C1538      H1540   1.086       .  S
C1541      H1543   1.087       .  S
C1542      H1544   1.079       .  S
C1545      C1546   1.352       .  D
C1545      H1547   1.087       .  S
C1546      H1548   1.084       .  S
C1549      C1550   1.343       .  D
C1549      H1551   1.089       .  S
C1550      H1552   1.087       .  S
C1553      C1554   1.339       .  D
C1554      H1556   1.089       .  S
C1557      C1558   1.352       .  D
C1557      H1559   1.085       .  S
C1558      H1560   1.086       .  S
C1561      C1562   1.351       .  D
C1561      H1563   1.086       .  S
C1562      H1564   1.085       .  S
C1565      C1566   1.346       .  D
C1565      H1567   1.088       .  S
C1566      H1568   1.086       .  S
C1569      C1570   1.347       .  D
C1569      H1571   1.085       .  S
C1570      H1572   1.087       .  S
C1573      C1574   1.348       .  D
C1573      H1575   1.086       .  S
C1574      H1576   1.087       .  S
C1577      C1578   1.345       .  D
C1577      H1579   1.088       .  S
C1578      H1580   1.086       .  S
C1581      C1582   1.349       .  D
C1581      H1583   1.086       .  S
C1582      H1584   1.087       .  S
C1585      C1586   1.352       .  D
C1585      H1587   1.088       .  S
C1586      H1588   1.086       .  S
C1589      H1591   1.080       .  S
C1590      H1592   1.087       .  S
C1593      C1594   1.354       .  D
C1593      H1595   1.084       .  S
C1594      H1596   1.086       .  S
C1597      C1598   1.344       .  D
C1597      H1599   1.086       .  S
C1598      H1600   1.088       .  S
