geometry optimzed in LAMMPS
_audit_creation_date              2020-11-30 
_audit_creation_method            'lammps2cif' 
_symmetry_space_group_name_H-M    'P1' 
_symmetry_Int_Tables_number       1 
_symmetry_cell_setting            triclinic 
loop_ 
_symmetry_equiv_pos_as_xyz 
  x,y,z 
_cell_length_a                    44.40391852 
_cell_length_b                    39.82668610326087 
_cell_length_c                    39.640258329392594 
_cell_angle_alpha                 90.29922513438676 
_cell_angle_beta                  90.07029118974495 
_cell_angle_gamma                 90.22425320453215 
loop_ 
_atom_site_label 
_atom_site_type_symbol 
_atom_site_fract_x 
_atom_site_fract_y 
_atom_site_fract_z 
_atom_site_charge 
In1        In  0.16305651  0.12296360  0.14278253     1.36900
C2          C  0.18536496  0.12537970  0.20494847     0.77100
O3          O  0.19162752  0.07649627  0.14447099    -0.61300
O4          O  0.17067527  0.08842653  0.09810350    -0.52200
C5          C  0.10301917  0.12439772  0.14447726     0.69800
O6          O  0.11887686  0.15047580  0.14154708    -0.47100
C7          C  0.18550785  0.17564529  0.11049953     0.74500
O8          O  0.15947613  0.11355829  0.19880411    -0.58900
O9          O  0.17713555  0.14932926  0.09528318    -0.49000
O10         O  0.19926161  0.13597131  0.17942921    -0.55400
C11         C  0.18796851  0.06904403  0.11389406     0.84700
O12         O  0.11789785  0.09765010  0.14640704    -0.57300
O13         O  0.18063730  0.17583637  0.14178286    -0.60600
In14       In  0.31487001  0.11999726  0.49083797     1.36900
C15         C  0.28925530  0.12015687  0.43054860     0.77100
O16         O  0.29239737  0.06941204  0.48958884    -0.61300
O17         O  0.30491433  0.08932288  0.03728309    -0.52200
C18         C  0.37487380  0.12148334  0.48833708     0.69800
O19         O  0.35985764  0.09465844  0.48614494    -0.47100
C20         C  0.29223696  0.17446492  0.01997204     0.74500
O21         O  0.31752695  0.11862716  0.43408141    -0.58900
O22         O  0.30351792  0.15082200  0.03677446    -0.49000
O23         O  0.27466301  0.12149649  0.45775319    -0.55400
C24         C  0.29190361  0.06613449  0.02108587     0.84700
O25         O  0.35914431  0.14748592  0.99170716    -0.57300
O26         O  0.29417717  0.17117485  0.48848369    -0.60600
In27       In  0.16254881  0.37101353  0.48959569     1.36900
C28         C  0.18764728  0.36978212  0.42879251     0.77100
O29         O  0.18474600  0.42168807  0.48909867    -0.61300
O30         O  0.17362651  0.40069353  0.03661110    -0.52200
C31         C  0.10230069  0.37377097  0.48722314     0.69800
O32         O  0.11670527  0.34659388  0.48798476    -0.47100
C33         C  0.18517443  0.31680901  0.01944655     0.74500
O34         O  0.15943974  0.36881006  0.43285129    -0.58900
O35         O  0.17414494  0.34095008  0.03588164    -0.49000
O36         O  0.20261931  0.37180557  0.45575758    -0.55400
C37         C  0.18588546  0.42441752  0.02072489     0.84700
O38         O  0.11874187  0.39958680  0.98766067    -0.57300
O39         O  0.18268288  0.31923523  0.48796286    -0.60600
In40       In  0.31519631  0.36968576  0.14148367     1.36900
C41         C  0.29043161  0.36764144  0.20226831     0.77100
O42         O  0.28734447  0.41641964  0.14333133    -0.61300
O43         O  0.30766067  0.40366483  0.09669638    -0.52200
C44         C  0.37521064  0.36897375  0.14495008     0.69800
O45         O  0.36003686  0.39550032  0.14736802    -0.47100
C46         C  0.29338706  0.31648378  0.10923705     0.74500
O47         O  0.31702812  0.37802316  0.19767042    -0.58900
O48         O  0.30142971  0.34271937  0.09392803    -0.49000
O49         O  0.27704279  0.35805073  0.17588772    -0.55400
C50         C  0.29056448  0.42328329  0.11266569     0.84700
O51         O  0.35965734  0.34280546  0.14073746    -0.57300
O52         O  0.29862910  0.31655158  0.14046421    -0.60600
In53       In  0.23868586  0.49567679  0.06758060     1.36900
C54         C  0.20411894  0.04125609  0.09777018     0.77100
O55         O  0.27531517  0.03481130  0.06890347    -0.61300
O56         O  0.25784379  0.01969827  0.02127854    -0.52200
C57         C  0.27396010  0.45062085  0.09676432     0.69800
O58         O  0.25589323  0.46879791  0.11309582    -0.47100
C59         C  0.20236029  0.45168452  0.03748478     0.74500
O60         O  0.22301396  0.02374404  0.11349105    -0.58900
O61         O  0.21885454  0.47177552  0.02135847    -0.49000
O62         O  0.20151644  0.03416052  0.06688903    -0.55400
C63         C  0.27520286  0.03903849  0.03745276     0.84700
O64         O  0.27519147  0.45656221  0.06561666    -0.57300
O65         O  0.20285950  0.45548190  0.06907223    -0.60600
In66       In  0.23892901  0.24598189  0.06416690     1.36900
C67         C  0.27573318  0.20209607  0.03562230     0.77100
O68         O  0.27231923  0.28834710  0.06135024    -0.61300
O69         O  0.26301179  0.26699735  0.10929247    -0.52200
C70         C  0.20195058  0.28959694  0.03544196     0.69800
O71         O  0.21639671  0.26802468  0.01865555    -0.47100
C72         C  0.20204142  0.20261477  0.09370815     0.74500
O73         O  0.26049773  0.22267829  0.01864125    -0.58900
O74         O  0.21562105  0.22543957  0.10988256    -0.49000
O75         O  0.27372828  0.20548203  0.06712968    -0.55400
C76         C  0.27652386  0.28942458  0.09276448     0.84700
O77         O  0.20495039  0.28750969  0.06696212    -0.57300
O78         O  0.20571522  0.20333325  0.06223072    -0.60600
In79       In  0.81587708  0.12670748  0.14358520     1.36900
C80         C  0.79107260  0.12507269  0.20430454     0.77100
O81         O  0.78942732  0.17463067  0.14489211    -0.61300
O82         O  0.80649488  0.15851942  0.09770049    -0.52200
C83         C  0.87602532  0.12676327  0.14547455     0.69800
O84         O  0.86066304  0.15285848  0.15022802    -0.47100
C85         C  0.79339945  0.07222051  0.11358827     0.74500
O86         O  0.81831959  0.13337706  0.20018668    -0.58900
O87         O  0.80162587  0.09782730  0.09735216    -0.49000
O88         O  0.77725599  0.11748311  0.17758097    -0.55400
C89         C  0.79064621  0.17940282  0.11363818     0.84700
O90         O  0.86061133  0.10074935  0.13983745    -0.57300
O91         O  0.79879960  0.07342934  0.14479229    -0.60600
In92       In  0.66202683  0.12060873  0.49023387     1.36900
C93         C  0.68650916  0.11779450  0.42927639     0.77100
O94         O  0.68721422  0.16955966  0.48870427    -0.61300
O95         O  0.66972294  0.15388389  0.03575937    -0.52200
C96         C  0.60200327  0.12180580  0.48822324     0.69800
O97         O  0.61673930  0.09564818  0.49471976    -0.47100
C98         C  0.68487746  0.06806519  0.02223057     0.74500
O99         O  0.65838169  0.12002164  0.43348181    -0.58900
O100        O  0.67545518  0.09373381  0.03753451    -0.49000
O101        O  0.70161899  0.11648556  0.45616004    -0.55400
C102        C  0.68508569  0.17517458  0.01983483     0.84700
O103        O  0.61801737  0.14725346  0.98230924    -0.57300
O104        O  0.68051296  0.06806837  0.49083418    -0.60600
In105      In  0.81402127  0.37414360  0.49316330     1.36900
C106        C  0.78780858  0.37383995  0.43273521     0.77100
O107        O  0.79055642  0.32393853  0.49042329    -0.61300
O108        O  0.80093619  0.34387420  0.03875951    -0.52200
C109        C  0.87450565  0.37544006  0.49129113     0.69800
O110        O  0.85848087  0.40000263  0.48288430    -0.47100
C111        C  0.79293589  0.42835451  0.02466329     0.74500
O112        O  0.81439682  0.36344330  0.43719651    -0.58900
O113        O  0.80265459  0.40326384  0.04050575    -0.49000
O114        O  0.77489927  0.38390697  0.45919017    -0.55400
C115        C  0.78858998  0.32072264  0.02189546     0.84700
O116        O  0.85960679  0.35010909  0.00034950    -0.57300
O117        O  0.79610054  0.42670443  0.49318889    -0.60600
In118      In  0.66195107  0.37507505  0.14304451     1.36900
C119        C  0.68617671  0.37736620  0.20458513     0.77100
O120        O  0.68691908  0.32623569  0.14395485    -0.61300
O121        O  0.66917556  0.34189767  0.09710134    -0.52200
C122        C  0.60194159  0.37293400  0.14350517     0.69800
O123        O  0.61805245  0.34838917  0.15182049    -0.47100
C124        C  0.68475829  0.42930739  0.11347852     0.74500
O125        O  0.65800424  0.37600282  0.19993929    -0.58900
O126        O  0.67567912  0.40409573  0.09698780    -0.49000
O127        O  0.70149220  0.37801520  0.17782323    -0.55400
C128        C  0.68438857  0.32049346  0.11290428     0.84700
O129        O  0.61655771  0.39888568  0.13560861    -0.57300
O130        O  0.68030488  0.42780527  0.14477477    -0.60600
In131      In  0.73949465  0.49983069  0.06941243     1.36900
C132        C  0.70174101  0.45663905  0.09785512     0.77100
O133        O  0.70555208  0.04139577  0.07078022    -0.61300
O134        O  0.71644104  0.01965757  0.02324572    -0.52200
C135        C  0.77645081  0.04460823  0.09783750     0.69800
O136        O  0.76274233  0.02257152  0.11474147    -0.47100
C137        C  0.77653297  0.45579394  0.04096076     0.74500
O138        O  0.71661141  0.47785082  0.11484766    -0.58900
O139        O  0.76251874  0.47759850  0.02426024    -0.49000
O140        O  0.70465835  0.45900559  0.06638226    -0.55400
C141        C  0.70206057  0.04185339  0.03922929     0.84700
O142        O  0.77256855  0.04257075  0.06641705    -0.57300
O143        O  0.77325460  0.45788561  0.07245107    -0.60600
In144      In  0.73601620  0.24827610  0.06672711     1.36900
C145        C  0.70014529  0.29263545  0.09649093     0.77100
O146        O  0.77120739  0.28892403  0.06901556    -0.61300
O147        O  0.75489053  0.27378040  0.02090482    -0.52200
C148        C  0.77301316  0.20558653  0.09711905     0.69800
O149        O  0.75440184  0.22343689  0.11301015    -0.47100
C150        C  0.70115722  0.20289744  0.03633001     0.74500
O151        O  0.71749631  0.27361067  0.11265079    -0.58900
O152        O  0.71904895  0.22167419  0.02048969    -0.49000
O153        O  0.69930436  0.28733727  0.06511726    -0.55400
C154        C  0.77159102  0.29341435  0.03760359     0.84700
O155        O  0.77376496  0.21058714  0.06579538    -0.57300
O156        O  0.69971208  0.20853277  0.06759385    -0.60600
C157        C  0.73014923  0.39033718  0.36440750    -0.11300
C158        C  0.74375448  0.37569473  0.33593731     0.05800
C159        C  0.77202502  0.36026010  0.33972928    -0.10100
C160        C  0.78639820  0.35966171  0.37114104    -0.11700
C161        C  0.77276284  0.37432119  0.39947216    -0.01500
C162        C  0.74446831  0.38960253  0.39583378    -0.10600
C163        C  0.72868938  0.37667024  0.30236992     0.05900
H164        H  0.78292035  0.34829070  0.31845433     0.07800
H165        H  0.80813390  0.34756673  0.37328752     0.11300
H166        H  0.73348728  0.40123239  0.41723710     0.11500
H167        H  0.70860656  0.40282511  0.36231266     0.07800
C168        C  0.69732250  0.37217249  0.29936643    -0.11300
C169        C  0.68334842  0.37276072  0.26766573    -0.10600
C170        C  0.70044552  0.37775903  0.23834342    -0.01500
C171        C  0.73171696  0.38243677  0.24133838    -0.11700
C172        C  0.74564996  0.38199057  0.27295379    -0.10100
H173        H  0.68365242  0.36761892  0.32144734     0.07800
H174        H  0.65920549  0.36890049  0.26606523     0.11500
H175        H  0.74546098  0.38647765  0.21919862     0.11200
H176        H  0.76975262  0.38612018  0.27436327     0.07800
C177        C  0.77576712  0.13447890  0.29770620    -0.11300
C178        C  0.74596695  0.12238399  0.29989268     0.05800
C179        C  0.73137430  0.11154820  0.27032952    -0.10100
C180        C  0.74617317  0.11262201  0.23939674    -0.11700
C181        C  0.77598645  0.12429278  0.23731391    -0.01500
C182        C  0.79069484  0.13528648  0.26668349    -0.10600
C183        C  0.73031490  0.12051365  0.33290280     0.05900
H184        H  0.70866134  0.10155583  0.27112545     0.07800
H185        H  0.73431655  0.10394651  0.21710532     0.11300
H186        H  0.81360934  0.14466678  0.26564464     0.11500
H187        H  0.78746840  0.14360449  0.31989736     0.07800
C188        C  0.74634443  0.11187940  0.36213898    -0.11300
C189        C  0.73189095  0.11056380  0.39329688    -0.10600
C190        C  0.70100868  0.11747242  0.39588919    -0.01500
C191        C  0.68469926  0.12536345  0.36669367    -0.11700
C192        C  0.69924386  0.12705852  0.33548429    -0.10100
H193        H  0.77009987  0.10588667  0.36096547     0.07800
H194        H  0.74494158  0.10419323  0.41542427     0.11500
H195        H  0.66086661  0.13099889  0.36810652     0.11200
H196        H  0.68629077  0.13417828  0.31356243     0.07800
C197        C  0.45575982  0.33897174  0.13986749    -0.11300
C198        C  0.47190295  0.36881264  0.14604822     0.05800
C199        C  0.45590273  0.39835874  0.15334219    -0.10100
C200        C  0.42445691  0.39828909  0.15350015    -0.11700
C201        C  0.40838644  0.36864670  0.14649913    -0.01500
C202        C  0.42429551  0.33888997  0.14015002    -0.10600
C203        C  0.50527976  0.36930892  0.14445490     0.05900
H204        H  0.46771519  0.42158054  0.15890157     0.07800
H205        H  0.41272039  0.42150361  0.15879218     0.11300
H206        H  0.41241139  0.31567006  0.13470970     0.11500
H207        H  0.46742996  0.31587371  0.13393777     0.07800
C208        C  0.52218653  0.34272951  0.15779920    -0.11300
C209        C  0.55363000  0.34371023  0.15703800    -0.10600
C210        C  0.56876499  0.37137545  0.14313558    -0.01500
C211        C  0.55194399  0.39761620  0.12914523    -0.11700
C212        C  0.52050502  0.39655407  0.12971277    -0.10100
H213        H  0.51112370  0.32150917  0.16951560     0.07800
H214        H  0.56610512  0.32311079  0.16791520     0.11500
H215        H  0.56309024  0.41903655  0.11788567     0.11200
H216        H  0.50810046  0.41704457  0.11856515     0.07800
C217        C  0.02219517  0.40667227  0.99014787    -0.11300
C218        C  0.00523109  0.37684745  0.48707922     0.05800
C219        C  0.02068951  0.34635423  0.48267481    -0.10100
C220        C  0.05213974  0.34549875  0.48241334    -0.11700
C221        C  0.06900443  0.37513704  0.48619035    -0.01500
C222        C  0.05374843  0.40582052  0.98959402    -0.10600
C223        C  0.97164245  0.37719233  0.48887536     0.05900
H224        H  0.00846284  0.32298348  0.47931694     0.07800
H225        H  0.06328793  0.32152430  0.47936092     0.11300
H226        H  0.06621050  0.42909107  0.99252905     0.11500
H227        H  0.01114777  0.43058365  0.99384829     0.07800
C228        C  0.95595046  0.35063171  0.00436402    -0.11300
C229        C  0.92447147  0.35007369  0.00505446    -0.10600
C230        C  0.90784519  0.37626832  0.49068885    -0.01500
C231        C  0.92336244  0.40322009  0.47585680    -0.11700
C232        C  0.95490505  0.40363510  0.47484455    -0.10100
H233        H  0.96799877  0.33024278  0.01618261     0.07800
H234        H  0.91312379  0.32915952  0.01700984     0.11500
H235        H  0.91109142  0.42377376  0.46458954     0.11200
H236        H  0.96613047  0.42433199  0.46240812     0.07800
C237        C  0.27490051  0.38245474  0.29482222    -0.11300
C238        C  0.24636632  0.36735816  0.29861968     0.05800
C239        C  0.23272915  0.35221589  0.27033217    -0.10100
C240        C  0.24716129  0.35229163  0.23908326    -0.11700
C241        C  0.27569127  0.36716332  0.23550213    -0.01500
C242        C  0.28948717  0.38215696  0.26362330    -0.10600
C243        C  0.23101758  0.36733603  0.33195421     0.05900
H244        H  0.21105583  0.33982087  0.27236996     0.07800
H245        H  0.23606428  0.34049420  0.21776718     0.11300
H246        H  0.31136900  0.39408863  0.26140246     0.11500
H247        H  0.28581923  0.39498309  0.31581658     0.07800
C248        C  0.24786963  0.36470017  0.36185968    -0.11300
C249        C  0.23367997  0.36552001  0.39322038    -0.10600
C250        C  0.20226219  0.36853872  0.39544144    -0.01500
C251        C  0.18522837  0.37048342  0.36570981    -0.11700
C252        C  0.19946394  0.37009948  0.33426020    -0.10100
H253        H  0.27209391  0.36168269  0.36111648     0.07800
H254        H  0.24732645  0.36361355  0.41576592     0.11500
H255        H  0.16093871  0.37287470  0.36677600     0.11200
H256        H  0.18578228  0.37266501  0.31185016     0.07800
C257        C  0.45578288  0.09341207  0.48107319    -0.11300
C258        C  0.47167939  0.12355435  0.48674928     0.05800
C259        C  0.45527866  0.15326474  0.99207396    -0.10100
C260        C  0.42378092  0.15268024  0.99221622    -0.11700
C261        C  0.40807228  0.12237443  0.48721436    -0.01500
C262        C  0.42435772  0.09280948  0.48146664    -0.10600
C263        C  0.50518070  0.12366970  0.48754003     0.05900
H264        H  0.46675402  0.17684994  0.99689365     0.07800
H265        H  0.41172622  0.17585692  0.99672870     0.11300
H266        H  0.41279259  0.06914586  0.47725215     0.11500
H267        H  0.46763093  0.07020711  0.47609838     0.07800
C268        C  0.52085936  0.09638086  0.50140177    -0.11300
C269        C  0.55227912  0.09573731  0.50133725    -0.10600
C270        C  0.56878968  0.12259045  0.48790061    -0.01500
C271        C  0.55331096  0.15021244  0.97458657    -0.11700
C272        C  0.52179958  0.15069359  0.97425333    -0.10100
H273        H  0.50885099  0.07551889  0.51258563     0.07800
H274        H  0.56367060  0.07433172  0.51212708     0.11500
H275        H  0.56556554  0.17125174  0.96404954     0.11200
H276        H  0.51049899  0.17192126  0.96304430     0.07800
C277        C  0.95653372  0.09813057  0.13515210    -0.11300
C278        C  0.97282582  0.12612010  0.14712097     0.05800
C279        C  0.95685744  0.15432380  0.15878115    -0.10100
C280        C  0.92537650  0.15461176  0.15819748    -0.11700
C281        C  0.90923966  0.12658213  0.14627845    -0.01500
C282        C  0.92509368  0.09830454  0.13491990    -0.10600
C283        C  0.00629990  0.12591903  0.14710314     0.05900
H284        H  0.96867566  0.17609024  0.16867054     0.07800
H285        H  0.91365234  0.17666140  0.16729055     0.11300
H286        H  0.91316822  0.07641982  0.12541055     0.11500
H287        H  0.96807003  0.07623971  0.12542082     0.07800
C288        C  0.02215835  0.09636037  0.15455284    -0.11300
C289        C  0.05358793  0.09590132  0.15365146    -0.10600
C290        C  0.06984590  0.12505413  0.14561890    -0.01500
C291        C  0.05415294  0.15473097  0.13861117    -0.11700
C292        C  0.02268971  0.15513236  0.13919028    -0.10100
H293        H  0.01029368  0.07358839  0.16136137     0.07800
H294        H  0.06517736  0.07275336  0.15941484     0.11500
H295        H  0.06618856  0.17752847  0.13223101     0.11200
H296        H  0.01121732  0.17817042  0.13282406     0.07800
C297        C  0.20017293  0.10819104  0.29725488    -0.11300
C298        C  0.22813325  0.12434655  0.30204513     0.05800
C299        C  0.24092189  0.14210218  0.27509364    -0.10100
C300        C  0.22657090  0.14293552  0.24382094    -0.11700
C301        C  0.19902181  0.12620433  0.23883512    -0.01500
C302        C  0.18569107  0.10921648  0.26592378    -0.10600
C303        C  0.24398187  0.12270778  0.33495129     0.07500
H304        H  0.26206434  0.15545262  0.27816909     0.07800
H305        H  0.23721607  0.15645209  0.22340954     0.11300
H306        H  0.16449134  0.09602138  0.26265734     0.11500
H307        H  0.18986140  0.09406649  0.31743573     0.07800
C308        C  0.22768731  0.12462794  0.36520291    -0.11300
C309        C  0.24253523  0.12352857  0.39616362    -0.10600
C310        C  0.27402106  0.12062278  0.39756855    -0.01500
C311        C  0.29043426  0.11853377  0.36745210    -0.11700
C312        C  0.27553946  0.11950411  0.33638676    -0.10100
H313        H  0.20343541  0.12760559  0.36498094     0.07800
H314        H  0.22934306  0.12529137  0.41903635     0.11500
H315        H  0.31473885  0.11614045  0.36790527     0.11200
H316        H  0.28867752  0.11742764  0.31352162     0.07800
In317      In  0.16305659  0.12296335  0.64278244     1.36900
C318        C  0.18536479  0.12537947  0.70494843     0.77100
O319        O  0.19162766  0.07649600  0.64447089    -0.61300
O320        O  0.17067541  0.08842630  0.59810339    -0.52200
C321        C  0.10301924  0.12439759  0.64447706     0.69800
O322        O  0.11887701  0.15047567  0.64154704    -0.47100
C323        C  0.18550796  0.17564502  0.61049956     0.74500
O324        O  0.15947616  0.11355762  0.69880389    -0.58900
O325        O  0.17713568  0.14932900  0.59528312    -0.49000
O326        O  0.19926141  0.13597136  0.67942924    -0.55400
C327        C  0.18796859  0.06904376  0.61389396     0.84700
O328        O  0.11789786  0.09764997  0.64640680    -0.57300
O329        O  0.18063741  0.17583610  0.64178287    -0.60600
In330      In  0.31487005  0.11999738  0.99083794     1.36900
C331        C  0.28925528  0.12015703  0.93054857     0.77100
O332        O  0.29239715  0.06941230  0.98958884    -0.61300
O333        O  0.30491397  0.08932299  0.53728320    -0.52200
C334        C  0.37487382  0.12148347  0.98833710     0.69800
O335        O  0.35985768  0.09465860  0.98614485    -0.47100
C336        C  0.29223686  0.17446482  0.51997192     0.74500
O337        O  0.31752690  0.11862708  0.93408141    -0.58900
O338        O  0.30351808  0.15082206  0.53677439    -0.49000
O339        O  0.27466313  0.12149688  0.95775316    -0.55400
C340        C  0.29190355  0.06613443  0.52108590     0.84700
O341        O  0.35914430  0.14748578  0.49170724    -0.57300
O342        O  0.29417757  0.17117512  0.98848380    -0.60600
In343      In  0.16254883  0.37101355  0.98959570     1.36900
C344        C  0.18764716  0.36978211  0.92879245     0.77100
O345        O  0.18474608  0.42168801  0.98909852    -0.61300
O346        O  0.17362650  0.40069343  0.53661128    -0.52200
C347        C  0.10230065  0.37377125  0.98722328     0.69800
O348        O  0.11670519  0.34659420  0.98798502    -0.47100
C349        C  0.18517454  0.31680909  0.51944646     0.74500
O350        O  0.15943962  0.36881005  0.93285120    -0.58900
O351        O  0.17414482  0.34095000  0.53588158    -0.49000
O352        O  0.20261930  0.37180537  0.95575757    -0.55400
C353        C  0.18588539  0.42441741  0.52072510     0.84700
O354        O  0.11874184  0.39958664  0.48766090    -0.57300
O355        O  0.18268260  0.31923500  0.98796296    -0.60600
In356      In  0.31519631  0.36968566  0.64148367     1.36900
C357        C  0.29043159  0.36764139  0.70226820     0.77100
O358        O  0.28734472  0.41641957  0.64333140    -0.61300
O359        O  0.30766058  0.40366465  0.59669632    -0.52200
C360        C  0.37521065  0.36897387  0.64494997     0.69800
O361        O  0.36003689  0.39550038  0.64736818    -0.47100
C362        C  0.29338702  0.31648365  0.60923721     0.74500
O363        O  0.31702835  0.37802236  0.69767048    -0.58900
O364        O  0.30142989  0.34271914  0.59392810    -0.49000
O365        O  0.27704260  0.35805110  0.67588750    -0.55400
C366        C  0.29056452  0.42328307  0.61266558     0.84700
O367        O  0.35965733  0.34280558  0.64073712    -0.57300
O368        O  0.29862911  0.31655157  0.64046430    -0.60600
In369      In  0.23868579  0.49567662  0.56758065     1.36900
C370        C  0.20411905  0.04125593  0.59777009     0.77100
O371        O  0.27531516  0.03481116  0.56890348    -0.61300
O372        O  0.25784383  0.01969822  0.52127846    -0.52200
C373        C  0.27395994  0.45062074  0.59676456     0.69800
O374        O  0.25589318  0.46879783  0.61309593    -0.47100
C375        C  0.20236018  0.45168437  0.53748482     0.74500
O376        O  0.22301387  0.02374369  0.61349104    -0.58900
O377        O  0.21885437  0.47177532  0.52135850    -0.49000
O378        O  0.20151650  0.03416038  0.56688893    -0.55400
C379        C  0.27520284  0.03903845  0.53745278     0.84700
O380        O  0.27519141  0.45656211  0.56561680    -0.57300
O381        O  0.20285938  0.45548174  0.56907229    -0.60600
In382      In  0.23892896  0.24598181  0.56416687     1.36900
C383        C  0.27573315  0.20209602  0.53562220     0.77100
O384        O  0.27231931  0.28834693  0.56135027    -0.61300
O385        O  0.26301160  0.26699735  0.60929247    -0.52200
C386        C  0.20195061  0.28959687  0.53544183     0.69800
O387        O  0.21639691  0.26802473  0.51865545    -0.47100
C388        C  0.20204146  0.20261452  0.59370816     0.74500
O389        O  0.26049758  0.22267814  0.51864117    -0.58900
O390        O  0.21562094  0.22543951  0.60988251    -0.49000
O391        O  0.27372827  0.20548205  0.56712954    -0.55400
C392        C  0.27652387  0.28942448  0.59276447     0.84700
O393        O  0.20495030  0.28750957  0.56696202    -0.57300
O394        O  0.20571516  0.20333299  0.56223075    -0.60600
In395      In  0.81587713  0.12670728  0.64358528     1.36900
C396        C  0.79107271  0.12507268  0.70430475     0.77100
O397        O  0.78942737  0.17463053  0.64489208    -0.61300
O398        O  0.80649469  0.15851905  0.59770050    -0.52200
C399        C  0.87602535  0.12676314  0.64547442     0.69800
O400        O  0.86066303  0.15285836  0.65022782    -0.47100
C401        C  0.79339947  0.07222030  0.61358843     0.74500
O402        O  0.81831960  0.13337719  0.70018673    -0.58900
O403        O  0.80162607  0.09782701  0.59735234    -0.49000
O404        O  0.77725615  0.11748284  0.67758128    -0.55400
C405        C  0.79064613  0.17940252  0.61363806     0.84700
O406        O  0.86061143  0.10074915  0.63983779    -0.57300
O407        O  0.79879952  0.07342919  0.64479241    -0.60600
In408      In  0.66202673  0.12060905  0.99023390     1.36900
C409        C  0.68650910  0.11779459  0.92927641     0.77100
O410        O  0.68721367  0.16956032  0.98870414    -0.61300
O411        O  0.66972270  0.15388387  0.53575930    -0.52200
C412        C  0.60200319  0.12180605  0.98822351     0.69800
O413        O  0.61673927  0.09564847  0.99472019    -0.47100
C414        C  0.68487742  0.06806474  0.52223078     0.74500
O415        O  0.65838162  0.12002165  0.93348180    -0.58900
O416        O  0.67545513  0.09373336  0.53753457    -0.49000
O417        O  0.70161895  0.11648607  0.95616010    -0.55400
C418        C  0.68508583  0.17517423  0.51983486     0.84700
O419        O  0.61801754  0.14725323  0.48230936    -0.57300
O420        O  0.68051282  0.06806875  0.99083398    -0.60600
In421      In  0.81402132  0.37414375  0.99316339     1.36900
C422        C  0.78780841  0.37383972  0.93273535     0.77100
O423        O  0.79055717  0.32393843  0.99042338    -0.61300
O424        O  0.80093658  0.34387374  0.53875934    -0.52200
C425        C  0.87450565  0.37544014  0.99129125     0.69800
O426        O  0.85848085  0.40000265  0.98288398    -0.47100
C427        C  0.79293596  0.42835430  0.52466337     0.74500
O428        O  0.81439678  0.36344351  0.93719655    -0.58900
O429        O  0.80265446  0.40326349  0.54050571    -0.49000
O430        O  0.77489918  0.38390656  0.95919035    -0.55400
C431        C  0.78858981  0.32072245  0.52189534     0.84700
O432        O  0.85960674  0.35010881  0.50034882    -0.57300
O433        O  0.79610029  0.42670444  0.99318881    -0.60600
In434      In  0.66195101  0.37507472  0.64304463     1.36900
C435        C  0.68617669  0.37736579  0.70458519     0.77100
O436        O  0.68691917  0.32623551  0.64395485    -0.61300
O437        O  0.66917533  0.34189725  0.59710139    -0.52200
C438        C  0.60194150  0.37293394  0.64350541     0.69800
O439        O  0.61805222  0.34838898  0.65182066    -0.47100
C440        C  0.68475827  0.42930708  0.61347872     0.74500
O441        O  0.65800416  0.37600228  0.69993947    -0.58900
O442        O  0.67567903  0.40409552  0.59698796    -0.49000
O443        O  0.70149214  0.37801514  0.67782330    -0.55400
C444        C  0.68438847  0.32049315  0.61290430     0.84700
O445        O  0.61655777  0.39888553  0.63560877    -0.57300
O446        O  0.68030490  0.42780489  0.64477497    -0.60600
In447      In  0.73949460  0.49983039  0.56941259     1.36900
C448        C  0.70174092  0.45663869  0.59785527     0.77100
O449        O  0.70555194  0.04139537  0.57078048    -0.61300
O450        O  0.71644109  0.01965742  0.52324582    -0.52200
C451        C  0.77645090  0.04460809  0.59783764     0.69800
O452        O  0.76274253  0.02257131  0.61474163    -0.47100
C453        C  0.77653299  0.45579369  0.54096085     0.74500
O454        O  0.71661121  0.47785050  0.61484781    -0.58900
O455        O  0.76251891  0.47759835  0.52426032    -0.49000
O456        O  0.70465828  0.45900528  0.56638243    -0.55400
C457        C  0.70206051  0.04185305  0.53922949     0.84700
O458        O  0.77256847  0.04257068  0.56641723    -0.57300
O459        O  0.77325453  0.45788526  0.57245119    -0.60600
In460      In  0.73601620  0.24827582  0.56672705     1.36900
C461        C  0.70014527  0.29263520  0.59649090     0.77100
O462        O  0.77120769  0.28892342  0.56901542    -0.61300
O463        O  0.75488998  0.27378059  0.52090473    -0.52200
C464        C  0.77301301  0.20558629  0.59711906     0.69800
O465        O  0.75440177  0.22343664  0.61301011    -0.47100
C466        C  0.70115729  0.20289708  0.53632999     0.74500
O467        O  0.71749640  0.27361051  0.61265061    -0.58900
O468        O  0.71904940  0.22167338  0.52048971    -0.49000
O469        O  0.69930428  0.28733691  0.56511727    -0.55400
C470        C  0.77159091  0.29341413  0.53760352     0.84700
O471        O  0.77376483  0.21058695  0.56579531    -0.57300
O472        O  0.69971173  0.20853281  0.56759376    -0.60600
C473        C  0.73014898  0.39033644  0.86440744    -0.11300
C474        C  0.74375400  0.37569440  0.83593754     0.05800
C475        C  0.77202486  0.36025989  0.83972925    -0.10100
C476        C  0.78639817  0.35966156  0.87114137    -0.11700
C477        C  0.77276277  0.37432081  0.89947214    -0.01500
C478        C  0.74446783  0.38960205  0.89583422    -0.10600
C479        C  0.72868916  0.37666975  0.80236997     0.05900
H480        H  0.78291917  0.34829147  0.81845654     0.07800
H481        H  0.80813283  0.34756737  0.87328743     0.11300
H482        H  0.73348861  0.40122983  0.91723416     0.11500
H483        H  0.70860534  0.40282494  0.86231298     0.07800
C484        C  0.69732212  0.37217197  0.79936665    -0.11300
C485        C  0.68334827  0.37276029  0.76766558    -0.10600
C486        C  0.70044531  0.37775881  0.73834358    -0.01500
C487        C  0.73171696  0.38243660  0.74133825    -0.11700
C488        C  0.74564978  0.38199031  0.77295417    -0.10100
H489        H  0.68365305  0.36761814  0.82144565     0.07800
H490        H  0.65920541  0.36889995  0.76606512     0.11500
H491        H  0.74545953  0.38647739  0.71920119     0.11200
H492        H  0.76975172  0.38611966  0.77436340     0.07800
C493        C  0.77576700  0.13447911  0.79770611    -0.11300
C494        C  0.74596701  0.12238435  0.79989300     0.05800
C495        C  0.73137420  0.11154835  0.77032981    -0.10100
C496        C  0.74617315  0.11262215  0.73939695    -0.11700
C497        C  0.77598652  0.12429290  0.73731407    -0.01500
C498        C  0.79069492  0.13528674  0.76668372    -0.10600
C499        C  0.73031485  0.12051377  0.83290296     0.05900
H500        H  0.70866209  0.10155609  0.77112586     0.07800
H501        H  0.73431645  0.10394666  0.71710587     0.11300
H502        H  0.81360983  0.14466733  0.76564452     0.11500
H503        H  0.78746913  0.14360613  0.81989964     0.07800
C504        C  0.74634443  0.11187988  0.86213917    -0.11300
C505        C  0.73189106  0.11056424  0.89329706    -0.10600
C506        C  0.70100879  0.11747266  0.89588927    -0.01500
C507        C  0.68469900  0.12536338  0.86669377    -0.11700
C508        C  0.69924385  0.12705844  0.83548444    -0.10100
H509        H  0.77010057  0.10588700  0.86096567     0.07800
H510        H  0.74494157  0.10419434  0.91542424     0.11500
H511        H  0.66086815  0.13099820  0.86810656     0.11200
H512        H  0.68629030  0.13417781  0.81356243     0.07800
C513        C  0.45575955  0.33897193  0.63986749    -0.11300
C514        C  0.47190290  0.36881263  0.64604828     0.05800
C515        C  0.45590264  0.39835870  0.65334227    -0.10100
C516        C  0.42445689  0.39828924  0.65350015    -0.11700
C517        C  0.40838640  0.36864668  0.64649899    -0.01500
C518        C  0.42429556  0.33889016  0.64014991    -0.10600
C519        C  0.50527956  0.36930879  0.64445525     0.05900
H520        H  0.46771545  0.42158110  0.65890230     0.07800
H521        H  0.41272056  0.42150330  0.65879168     0.11300
H522        H  0.41241031  0.31566880  0.63470911     0.11500
H523        H  0.46743088  0.31587214  0.63393717     0.07800
C524        C  0.52218652  0.34272962  0.65779929    -0.11300
C525        C  0.55362973  0.34370997  0.65703830    -0.10600
C526        C  0.56876485  0.37137531  0.64313571    -0.01500
C527        C  0.55194383  0.39761624  0.62914545    -0.11700
C528        C  0.52050507  0.39655376  0.62971315    -0.10100
H529        H  0.51112210  0.32150643  0.66951724     0.07800
H530        H  0.56610501  0.32311064  0.66791529     0.11500
H531        H  0.56309002  0.41903612  0.61788576     0.11200
H532        H  0.50809942  0.41704595  0.61856468     0.07800
C533        C  0.02219532  0.40667163  0.49014837    -0.11300
C534        C  0.00523122  0.37684734  0.98707914     0.05800
C535        C  0.02068963  0.34635433  0.98267538    -0.10100
C536        C  0.05213975  0.34549895  0.98241385    -0.11700
C537        C  0.06900445  0.37513728  0.98619038    -0.01500
C538        C  0.05374825  0.40582043  0.48959463    -0.10600
C539        C  0.97164249  0.37719206  0.98887567     0.05900
H540        H  0.00846289  0.32298302  0.97931838     0.07800
H541        H  0.06328805  0.32152404  0.97936238     0.11300
H542        H  0.06621058  0.42909064  0.49253036     0.11500
H543        H  0.01114583  0.43058731  0.49385012     0.07800
C544        C  0.95595056  0.35063125  0.50436358    -0.11300
C545        C  0.92447118  0.35007356  0.50505384    -0.10600
C546        C  0.90784516  0.37626833  0.99068887    -0.01500
C547        C  0.92336240  0.40321959  0.97585664    -0.11700
C548        C  0.95490507  0.40363523  0.97484404    -0.10100
H549        H  0.96799676  0.33024538  0.51618042     0.07800
H550        H  0.91312435  0.32916033  0.51700868     0.11500
H551        H  0.91109035  0.42377467  0.96458748     0.11200
H552        H  0.96612914  0.42432922  0.96240910     0.07800
C553        C  0.27490073  0.38245441  0.79482210    -0.11300
C554        C  0.24636651  0.36735824  0.79861974     0.05800
C555        C  0.23272895  0.35221618  0.77033207    -0.10100
C556        C  0.24716121  0.35229202  0.73908338    -0.11700
C557        C  0.27569132  0.36716312  0.73550208    -0.01500
C558        C  0.28948740  0.38215665  0.76362338    -0.10600
C559        C  0.23101704  0.36733616  0.83195383     0.05900
H560        H  0.21105595  0.33982200  0.77236987     0.07800
H561        H  0.23606362  0.34049361  0.71776630     0.11300
H562        H  0.31137001  0.39408816  0.76140237     0.11500
H563        H  0.28582038  0.39498304  0.81581797     0.07800
C564        C  0.24786970  0.36470011  0.86185949    -0.11300
C565        C  0.23367960  0.36551988  0.89322028    -0.10600
C566        C  0.20226210  0.36853872  0.89544132    -0.01500
C567        C  0.18522792  0.37048356  0.86570952    -0.11700
C568        C  0.19946402  0.37009969  0.83426047    -0.10100
H569        H  0.27209044  0.36168302  0.86111653     0.07800
H570        H  0.24732606  0.36361315  0.91576517     0.11500
H571        H  0.16093964  0.37287488  0.86677626     0.11200
H572        H  0.18577964  0.37266565  0.81184616     0.07800
C573        C  0.45578291  0.09341221  0.98107333    -0.11300
C574        C  0.47167927  0.12355434  0.98674945     0.05800
C575        C  0.45527868  0.15326450  0.49207375    -0.10100
C576        C  0.42378103  0.15268022  0.49221607    -0.11700
C577        C  0.40807229  0.12237463  0.98721441    -0.01500
C578        C  0.42435770  0.09280953  0.98146672    -0.10600
C579        C  0.50518059  0.12366995  0.98754023     0.05900
H580        H  0.46675501  0.17685135  0.49689407     0.07800
H581        H  0.41172617  0.17585682  0.49672854     0.11300
H582        H  0.41279297  0.06914673  0.97725288     0.11500
H583        H  0.46763095  0.07020714  0.97609848     0.07800
C584        C  0.52085915  0.09638089  0.00140219    -0.11300
C585        C  0.55227895  0.09573761  0.00133763    -0.10600
C586        C  0.56878959  0.12259041  0.98790093    -0.01500
C587        C  0.55331106  0.15021234  0.47458640    -0.11700
C588        C  0.52179979  0.15069347  0.47425325    -0.10100
H589        H  0.50885140  0.07552017  0.01258537     0.07800
H590        H  0.56367076  0.07433086  0.01212804     0.11500
H591        H  0.56556594  0.17125221  0.46404899     0.11200
H592        H  0.51049897  0.17192145  0.46304444     0.07800
C593        C  0.95653380  0.09813032  0.63515208    -0.11300
C594        C  0.97282578  0.12611973  0.64712065     0.05800
C595        C  0.95685756  0.15432397  0.65878104    -0.10100
C596        C  0.92537640  0.15461143  0.65819723    -0.11700
C597        C  0.90923965  0.12658196  0.64627853    -0.01500
C598        C  0.92509367  0.09830412  0.63491986    -0.10600
C599        C  0.00629983  0.12591896  0.64710293     0.05900
H600        H  0.96867419  0.17608774  0.66866859     0.07800
H601        H  0.91365216  0.17666180  0.66729081     0.11300
H602        H  0.91316849  0.07641992  0.62541108     0.11500
H603        H  0.96807046  0.07623890  0.62542042     0.07800
C604        C  0.02215844  0.09636070  0.65455280    -0.11300
C605        C  0.05358804  0.09590117  0.65365156    -0.10600
C606        C  0.06984592  0.12505452  0.64561869    -0.01500
C607        C  0.05415281  0.15473094  0.63861081    -0.11700
C608        C  0.02268984  0.15513231  0.63918994    -0.10100
H609        H  0.01029299  0.07358646  0.66136168     0.07800
H610        H  0.06517643  0.07275608  0.65941477     0.11500
H611        H  0.06618959  0.17753028  0.63223004     0.11200
H612        H  0.01121647  0.17817180  0.63282337     0.07800
C613        C  0.20017271  0.10819076  0.79725470    -0.11300
C614        C  0.22813303  0.12434646  0.80204507     0.05800
C615        C  0.24092169  0.14210225  0.77509354    -0.10100
C616        C  0.22657060  0.14293543  0.74382122    -0.11700
C617        C  0.19902162  0.12620432  0.73883503    -0.01500
C618        C  0.18569108  0.10921630  0.76592370    -0.10600
C619        C  0.24398170  0.12270748  0.83495122     0.07500
H620        H  0.26206463  0.15545273  0.77816925     0.07800
H621        H  0.23721659  0.15645361  0.72340776     0.11300
H622        H  0.16448993  0.09602080  0.76265702     0.11500
H623        H  0.18986122  0.09406590  0.81743570     0.07800
C624        C  0.22768707  0.12462768  0.86520288    -0.11300
C625        C  0.24253508  0.12352846  0.89616375    -0.10600
C626        C  0.27402102  0.12062284  0.89756849    -0.01500
C627        C  0.29043409  0.11853389  0.86745200    -0.11700
C628        C  0.27553932  0.11950410  0.83638672    -0.10100
H629        H  0.20343568  0.12760479  0.86498098     0.07800
H630        H  0.22934335  0.12529104  0.91903585     0.11500
H631        H  0.31473917  0.11614053  0.86790512     0.11200
H632        H  0.28867756  0.11742730  0.81352124     0.07800
In633      In  0.16305653  0.62296349  0.14278235     1.36900
C634        C  0.18536489  0.62537968  0.20494826     0.77100
O635        O  0.19162741  0.57649610  0.14447080    -0.61300
O636        O  0.17067548  0.58842653  0.09810328    -0.52200
C637        C  0.10301921  0.62439760  0.14447699     0.69800
O638        O  0.11887696  0.65047565  0.14154659    -0.47100
C639        C  0.18550783  0.67564524  0.11049951     0.74500
O640        O  0.15947609  0.61355820  0.19880390    -0.58900
O641        O  0.17713558  0.64932924  0.09528306    -0.49000
O642        O  0.19926153  0.63597112  0.17942896    -0.55400
C643        C  0.18796851  0.56904390  0.11389381     0.84700
O644        O  0.11789783  0.59765002  0.14640702    -0.57300
O645        O  0.18063728  0.67583621  0.14178284    -0.60600
In646      In  0.31487017  0.61999727  0.49083781     1.36900
C647        C  0.28925533  0.62015683  0.43054852     0.77100
O648        O  0.29239747  0.56941210  0.48958887    -0.61300
O649        O  0.30491452  0.58932293  0.03728283    -0.52200
C650        C  0.37487398  0.62148338  0.48833683     0.69800
O651        O  0.35985783  0.59465844  0.48614491    -0.47100
C652        C  0.29223705  0.67446503  0.01997179     0.74500
O653        O  0.31752697  0.61862680  0.43408130    -0.58900
O654        O  0.30351816  0.65082213  0.03677419    -0.49000
O655        O  0.27466320  0.62149661  0.45775311    -0.55400
C656        C  0.29190372  0.56613454  0.02108577     0.84700
O657        O  0.35914440  0.64748598  0.99170665    -0.57300
O658        O  0.29417736  0.67117496  0.48848353    -0.60600
In659      In  0.16254883  0.87101339  0.48959554     1.36900
C660        C  0.18764727  0.86978198  0.42879228     0.77100
O661        O  0.18474593  0.92168788  0.48909836    -0.61300
O662        O  0.17362632  0.90069352  0.03661118    -0.52200
C663        C  0.10230069  0.87377096  0.48722299     0.69800
O664        O  0.11670523  0.84659384  0.48798469    -0.47100
C665        C  0.18517452  0.81680899  0.01944645     0.74500
O666        O  0.15943972  0.86880978  0.43285102    -0.58900
O667        O  0.17414503  0.84095012  0.03588149    -0.49000
O668        O  0.20261935  0.87180557  0.45575741    -0.55400
C669        C  0.18588532  0.92441740  0.02072492     0.84700
O670        O  0.11874185  0.89958671  0.98766057    -0.57300
O671        O  0.18268270  0.81923488  0.48796285    -0.60600
In672      In  0.31519631  0.86968573  0.14148357     1.36900
C673        C  0.29043176  0.86764141  0.20226815     0.77100
O674        O  0.28734429  0.91641945  0.14333130    -0.61300
O675        O  0.30766058  0.90366486  0.09669627    -0.52200
C676        C  0.37521065  0.86897385  0.14494991     0.69800
O677        O  0.36003691  0.89550039  0.14736776    -0.47100
C678        C  0.29338711  0.81648373  0.10923710     0.74500
O679        O  0.31702818  0.87802310  0.19767028    -0.58900
O680        O  0.30142977  0.84271934  0.09392794    -0.49000
O681        O  0.27704298  0.85805049  0.17588753    -0.55400
C682        C  0.29056434  0.92328317  0.11266558     0.84700
O683        O  0.35965725  0.84280560  0.14073744    -0.57300
O684        O  0.29862931  0.81655149  0.14046416    -0.60600
In685      In  0.23868567  0.99567672  0.06758071     1.36900
C686        C  0.20411916  0.54125601  0.09777016     0.77100
O687        O  0.27531540  0.53481124  0.06890337    -0.61300
O688        O  0.25784387  0.51969836  0.02127833    -0.52200
C689        C  0.27395982  0.95062088  0.09676459     0.69800
O690        O  0.25589284  0.96879782  0.11309593    -0.47100
C691        C  0.20236011  0.95168443  0.03748472     0.74500
O692        O  0.22301413  0.52374395  0.11349111    -0.58900
O693        O  0.21885439  0.97177544  0.02135854    -0.49000
O694        O  0.20151661  0.53416053  0.06688889    -0.55400
C695        C  0.27520302  0.53903846  0.03745260     0.84700
O696        O  0.27519145  0.95656240  0.06561691    -0.57300
O697        O  0.20285918  0.95548180  0.06907219    -0.60600
In698      In  0.23892904  0.74598189  0.06416690     1.36900
C699        C  0.27573327  0.70209612  0.03562224     0.77100
O700        O  0.27231938  0.78834702  0.06135022    -0.61300
O701        O  0.26301173  0.76699745  0.10929246    -0.52200
C702        C  0.20195061  0.78959690  0.03544190     0.69800
O703        O  0.21639674  0.76802458  0.01865551    -0.47100
C704        C  0.20204141  0.70261476  0.09370816     0.74500
O705        O  0.26049793  0.72267852  0.01864124    -0.58900
O706        O  0.21562106  0.72543954  0.10988257    -0.49000
O707        O  0.27372820  0.70548191  0.06712957    -0.55400
C708        C  0.27652399  0.78942457  0.09276438     0.84700
O709        O  0.20495038  0.78750969  0.06696202    -0.57300
O710        O  0.20571523  0.70333325  0.06223073    -0.60600
In711      In  0.81587704  0.62670741  0.14358514     1.36900
C712        C  0.79107262  0.62507262  0.20430452     0.77100
O713        O  0.78942739  0.67463074  0.14489211    -0.61300
O714        O  0.80649469  0.65851935  0.09770042    -0.52200
C715        C  0.87602535  0.62676330  0.14547429     0.69800
O716        O  0.86066303  0.65285841  0.15022789    -0.47100
C717        C  0.79339931  0.57222051  0.11358808     0.74500
O718        O  0.81831958  0.63337681  0.20018665    -0.58900
O719        O  0.80162574  0.59782734  0.09735216    -0.49000
O720        O  0.77725593  0.61748308  0.17758097    -0.55400
C721        C  0.79064607  0.67940271  0.11363809     0.84700
O722        O  0.86061136  0.60074940  0.13983738    -0.57300
O723        O  0.79879954  0.57342921  0.14479206    -0.60600
In724      In  0.66202685  0.62060867  0.49023371     1.36900
C725        C  0.68650925  0.61779427  0.42927620     0.77100
O726        O  0.68721431  0.66955957  0.48870397    -0.61300
O727        O  0.66972279  0.65388398  0.03575912    -0.52200
C728        C  0.60200323  0.62180567  0.48822298     0.69800
O729        O  0.61673931  0.59564812  0.49471980    -0.47100
C730        C  0.68487758  0.56806512  0.02223059     0.74500
O731        O  0.65838178  0.62002165  0.43348162    -0.58900
O732        O  0.67545516  0.59373363  0.03753442    -0.49000
O733        O  0.70161905  0.61648535  0.45615986    -0.55400
C734        C  0.68508553  0.67517467  0.01983471     0.84700
O735        O  0.61801739  0.64725322  0.98230909    -0.57300
O736        O  0.68051278  0.56806820  0.49083404    -0.60600
In737      In  0.81402122  0.87414370  0.49316340     1.36900
C738        C  0.78780853  0.87384004  0.43273538     0.77100
O739        O  0.79055651  0.82393865  0.49042329    -0.61300
O740        O  0.80093622  0.84387413  0.03875948    -0.52200
C741        C  0.87450564  0.87544001  0.49129125     0.69800
O742        O  0.85848087  0.90000254  0.48288432    -0.47100
C743        C  0.79293599  0.92835449  0.02466343     0.74500
O744        O  0.81439678  0.86344326  0.43719661    -0.58900
O745        O  0.80265455  0.90326374  0.04050588    -0.49000
O746        O  0.77489932  0.88390719  0.45919030    -0.55400
C747        C  0.78858989  0.82072261  0.02189544     0.84700
O748        O  0.85960668  0.85010918  0.00034950    -0.57300
O749        O  0.79610060  0.92670448  0.49318907    -0.60600
In750      In  0.66195109  0.87507502  0.14304452     1.36900
C751        C  0.68617678  0.87736605  0.20458511     0.77100
O752        O  0.68691902  0.82623565  0.14395474    -0.61300
O753        O  0.66917555  0.84189770  0.09710115    -0.52200
C754        C  0.60194162  0.87293413  0.14350534     0.69800
O755        O  0.61805244  0.84838923  0.15182070    -0.47100
C756        C  0.68475846  0.92930732  0.11347868     0.74500
O757        O  0.65800424  0.87600287  0.19993928    -0.58900
O758        O  0.67567898  0.90409586  0.09698788    -0.49000
O759        O  0.70149227  0.87801502  0.17782325    -0.55400
C760        C  0.68438857  0.82049353  0.11290411     0.84700
O761        O  0.61655775  0.89888573  0.13560853    -0.57300
O762        O  0.68030516  0.92780511  0.14477489    -0.60600
In763      In  0.73949468  0.99983074  0.06941258     1.36900
C764        C  0.70174105  0.95663896  0.09785527     0.77100
O765        O  0.70555192  0.54139555  0.07078011    -0.61300
O766        O  0.71644119  0.51965770  0.02324549    -0.52200
C767        C  0.77645087  0.54460814  0.09783739     0.69800
O768        O  0.76274236  0.52257149  0.11474131    -0.47100
C769        C  0.77653295  0.95579397  0.04096087     0.74500
O770        O  0.71661135  0.97785082  0.11484776    -0.58900
O771        O  0.76251902  0.97759878  0.02426040    -0.49000
O772        O  0.70465828  0.95900566  0.06638249    -0.55400
C773        C  0.70206058  0.54185329  0.03922912     0.84700
O774        O  0.77256845  0.54257080  0.06641695    -0.57300
O775        O  0.77325442  0.95788548  0.07245125    -0.60600
In776      In  0.73601615  0.74827604  0.06672704     1.36900
C777        C  0.70014525  0.79263551  0.09649079     0.77100
O778        O  0.77120735  0.78892391  0.06901549    -0.61300
O779        O  0.75489037  0.77378042  0.02090477    -0.52200
C780        C  0.77301304  0.70558644  0.09711910     0.69800
O781        O  0.75440175  0.72343674  0.11301020    -0.47100
C782        C  0.70115723  0.70289752  0.03632983     0.74500
O783        O  0.71749621  0.77361072  0.11265062    -0.58900
O784        O  0.71904912  0.72167408  0.02048953    -0.49000
O785        O  0.69930437  0.78733727  0.06511714    -0.55400
C786        C  0.77159087  0.79341435  0.03760354     0.84700
O787        O  0.77376497  0.71058715  0.06579538    -0.57300
O788        O  0.69971187  0.70853303  0.06759369    -0.60600
C789        C  0.73014918  0.89033706  0.36440744    -0.11300
C790        C  0.74375396  0.87569496  0.33593767     0.05800
C791        C  0.77202499  0.86026007  0.33972911    -0.10100
C792        C  0.78639801  0.85966193  0.37114143    -0.11700
C793        C  0.77276297  0.87432122  0.39947212    -0.01500
C794        C  0.74446792  0.88960271  0.39583420    -0.10600
C795        C  0.72868915  0.87667013  0.30237015     0.05900
H796        H  0.78291829  0.84829256  0.31845796     0.07800
H797        H  0.80813407  0.84756706  0.37328735     0.11300
H798        H  0.73348875  0.90123034  0.41723410     0.11500
H799        H  0.70860450  0.90282595  0.36231295     0.07800
C800        C  0.69732233  0.87217228  0.29936656    -0.11300
C801        C  0.68334832  0.87276051  0.26766583    -0.10600
C802        C  0.70044537  0.87775887  0.23834365    -0.01500
C803        C  0.73171704  0.88243684  0.24133831    -0.11700
C804        C  0.74564977  0.88199057  0.27295423    -0.10100
H805        H  0.68365198  0.86761810  0.32144783     0.07800
H806        H  0.65920541  0.86890003  0.26606520     0.11500
H807        H  0.74545950  0.88647714  0.21920150     0.11200
H808        H  0.76975200  0.88612004  0.27436336     0.07800
C809        C  0.77576699  0.63447903  0.29770604    -0.11300
C810        C  0.74596696  0.62238419  0.29989256     0.05800
C811        C  0.73137413  0.61154800  0.27032934    -0.10100
C812        C  0.74617325  0.61262186  0.23939672    -0.11700
C813        C  0.77598630  0.62429252  0.23731365    -0.01500
C814        C  0.79069494  0.63528661  0.26668330    -0.10600
C815        C  0.73031494  0.62051355  0.33290268     0.05900
H816        H  0.70866264  0.60155641  0.27112545     0.07800
H817        H  0.73431553  0.60394534  0.21710376     0.11300
H818        H  0.81360816  0.64466650  0.26564452     0.11500
H819        H  0.78746830  0.64360496  0.31989729     0.07800
C820        C  0.74634442  0.61187952  0.36213867    -0.11300
C821        C  0.73189125  0.61056365  0.39329692    -0.10600
C822        C  0.70100884  0.61747230  0.39588893    -0.01500
C823        C  0.68469908  0.62536321  0.36669366    -0.11700
C824        C  0.69924393  0.62705839  0.33548416    -0.10100
H825        H  0.77010055  0.60588645  0.36096536     0.07800
H826        H  0.74494044  0.60419387  0.41542171     0.11500
H827        H  0.66086877  0.63099795  0.36810641     0.11200
H828        H  0.68629072  0.63417755  0.31356294     0.07800
C829        C  0.45575973  0.83897188  0.13986779    -0.11300
C830        C  0.47190298  0.86881270  0.14604825     0.05800
C831        C  0.45590271  0.89835887  0.15334186    -0.10100
C832        C  0.42445693  0.89828935  0.15349982    -0.11700
C833        C  0.40838644  0.86864683  0.14649902    -0.01500
C834        C  0.42429558  0.83889014  0.14015032    -0.10600
C835        C  0.50527969  0.86930929  0.14445478     0.05900
H836        H  0.46771539  0.92158111  0.15890123     0.07800
H837        H  0.41272049  0.92150386  0.15879113     0.11300
H838        H  0.41241100  0.81566957  0.13471012     0.11500
H839        H  0.46743034  0.81587292  0.13393805     0.07800
C840        C  0.52218655  0.84272954  0.15779925    -0.11300
C841        C  0.55362999  0.84371045  0.15703802    -0.10600
C842        C  0.56876500  0.87137547  0.14313558    -0.01500
C843        C  0.55194388  0.89761652  0.12914515    -0.11700
C844        C  0.52050521  0.89655386  0.12971289    -0.10100
H845        H  0.51112410  0.82150975  0.16951485     0.07800
H846        H  0.56610535  0.82311024  0.16791516     0.11500
H847        H  0.56309038  0.91903639  0.11788575     0.11200
H848        H  0.50809850  0.91704790  0.11856353     0.07800
C849        C  0.02219530  0.90667197  0.99014777    -0.11300
C850        C  0.00523107  0.87684726  0.48707899     0.05800
C851        C  0.02068957  0.84635409  0.48267477    -0.10100
C852        C  0.05213973  0.84549868  0.48241330    -0.11700
C853        C  0.06900443  0.87513693  0.48619011    -0.01500
C854        C  0.05374832  0.90582061  0.98959404    -0.10600
C855        C  0.97164244  0.87719187  0.48887535     0.05900
H856        H  0.00846275  0.82298301  0.47931729     0.07800
H857        H  0.06328818  0.82152376  0.47936127     0.11300
H858        H  0.06621067  0.92909106  0.99252950     0.11500
H859        H  0.01114635  0.93058653  0.99384899     0.07800
C860        C  0.95595033  0.85063180  0.00436393    -0.11300
C861        C  0.92447147  0.85007400  0.00505427    -0.10600
C862        C  0.90784519  0.87626813  0.49068882    -0.01500
C863        C  0.92336238  0.90321981  0.47585664    -0.11700
C864        C  0.95490507  0.90363490  0.47484423    -0.10100
H865        H  0.96799864  0.83024311  0.01618264     0.07800
H866        H  0.91312317  0.82915897  0.01701015     0.11500
H867        H  0.91109141  0.92377352  0.46458902     0.11200
H868        H  0.96612977  0.92433043  0.46240850     0.07800
C869        C  0.27490045  0.88245485  0.29482203    -0.11300
C870        C  0.24636666  0.86735818  0.29861965     0.05800
C871        C  0.23272922  0.85221540  0.27033212    -0.10100
C872        C  0.24716185  0.85229143  0.23908350    -0.11700
C873        C  0.27569130  0.86716298  0.23550190    -0.01500
C874        C  0.28948744  0.88215722  0.26362313    -0.10600
C875        C  0.23101752  0.86733608  0.33195384     0.05900
H876        H  0.21105799  0.83982137  0.27237014     0.07800
H877        H  0.23606370  0.84049208  0.21776516     0.11300
H878        H  0.31136713  0.89408804  0.26140251     0.11500
H879        H  0.28581954  0.89498355  0.31581658     0.07800
C880        C  0.24786960  0.86470046  0.36185947    -0.11300
C881        C  0.23368006  0.86552027  0.39322023    -0.10600
C882        C  0.20226220  0.86853871  0.39544111    -0.01500
C883        C  0.18522816  0.87048319  0.36570930    -0.11700
C884        C  0.19946425  0.87009920  0.33426036    -0.10100
H885        H  0.27209454  0.86168306  0.36111631     0.07800
H886        H  0.24732585  0.86361400  0.41576489     0.11500
H887        H  0.16093923  0.87287451  0.36677594     0.11200
H888        H  0.18578001  0.87266471  0.31184594     0.07800
C889        C  0.45578302  0.59341190  0.48107311    -0.11300
C890        C  0.47167947  0.62355420  0.48674900     0.05800
C891        C  0.45527886  0.65326457  0.99207357    -0.10100
C892        C  0.42378111  0.65268043  0.99221575    -0.11700
C893        C  0.40807249  0.62237436  0.48721408    -0.01500
C894        C  0.42435786  0.59280936  0.48146657    -0.10600
C895        C  0.50518072  0.62366962  0.48753976     0.05900
H896        H  0.46675484  0.67685112  0.99689312     0.07800
H897        H  0.41172686  0.67585635  0.99672786     0.11300
H898        H  0.41279276  0.56914582  0.47725248     0.11500
H899        H  0.46763108  0.57020683  0.47609867     0.07800
C900        C  0.52085933  0.59638080  0.50140180    -0.11300
C901        C  0.55227909  0.59573733  0.50133725    -0.10600
C902        C  0.56878960  0.62259021  0.48790040    -0.01500
C903        C  0.55331114  0.65021259  0.97458616    -0.11700
C904        C  0.52179956  0.65069308  0.97425334    -0.10100
H905        H  0.50885110  0.57551932  0.51258601     0.07800
H906        H  0.56367072  0.57433170  0.51212755     0.11500
H907        H  0.56556349  0.67124801  0.96405054     0.11200
H908        H  0.51049881  0.67192157  0.96304391     0.07800
C909        C  0.95653382  0.59813045  0.13515191    -0.11300
C910        C  0.97282582  0.62611998  0.14712067     0.05800
C911        C  0.95685761  0.65432375  0.15878100    -0.10100
C912        C  0.92537649  0.65461173  0.15819734    -0.11700
C913        C  0.90923973  0.62658207  0.14627845    -0.01500
C914        C  0.92509360  0.59830439  0.13491969    -0.10600
C915        C  0.00629995  0.62591878  0.14710292     0.05900
H916        H  0.96867519  0.67608915  0.16866957     0.07800
H917        H  0.91365295  0.67666061  0.16729053     0.11300
H918        H  0.91316881  0.57642059  0.12541117     0.11500
H919        H  0.96806970  0.57624013  0.12542083     0.07800
C920        C  0.02215844  0.59636032  0.15455258    -0.11300
C921        C  0.05358802  0.59590120  0.15365123    -0.10600
C922        C  0.06984599  0.62505444  0.14561856    -0.01500
C923        C  0.05415288  0.65473079  0.13861092    -0.11700
C924        C  0.02268984  0.65513248  0.13918997    -0.10100
H925        H  0.01029351  0.57358725  0.16136132     0.07800
H926        H  0.06517708  0.57275439  0.15941434     0.11500
H927        H  0.06618987  0.67753121  0.13223006     0.11200
H928        H  0.01121753  0.67816978  0.13282397     0.07800
C929        C  0.20017251  0.60819091  0.29725507    -0.11300
C930        C  0.22813335  0.62434651  0.30204473     0.05800
C931        C  0.24092224  0.64210190  0.27509342    -0.10100
C932        C  0.22657098  0.64293519  0.24382070    -0.11700
C933        C  0.19902164  0.62620427  0.23883493    -0.01500
C934        C  0.18569106  0.60921682  0.26592348    -0.10600
C935        C  0.24398150  0.62270757  0.33495133     0.07500
H936        H  0.26206374  0.65545153  0.27816862     0.07800
H937        H  0.23721624  0.65645182  0.22340928     0.11300
H938        H  0.16448964  0.59602099  0.26265730     0.11500
H939        H  0.18986271  0.59406904  0.31743253     0.07800
C940        C  0.22768739  0.62462792  0.36520275    -0.11300
C941        C  0.24253495  0.62352858  0.39616369    -0.10600
C942        C  0.27402104  0.62062254  0.39756845    -0.01500
C943        C  0.29043406  0.61853327  0.36745220    -0.11700
C944        C  0.27553945  0.61950361  0.33638652    -0.10100
H945        H  0.20343305  0.62760598  0.36498072     0.07800
H946        H  0.22934364  0.62529144  0.41903560     0.11500
H947        H  0.31473874  0.61613955  0.36790499     0.11200
H948        H  0.28867616  0.61742727  0.31352397     0.07800
In949      In  0.16305658  0.62296347  0.64278233     1.36900
C950        C  0.18536488  0.62537954  0.70494826     0.77100
O951        O  0.19162752  0.57649600  0.64447081    -0.61300
O952        O  0.17067555  0.58842651  0.59810324    -0.52200
C953        C  0.10301925  0.62439770  0.64447696     0.69800
O954        O  0.11887696  0.65047582  0.64154670    -0.47100
C955        C  0.18550794  0.67564514  0.61049940     0.74500
O956        O  0.15947613  0.61355792  0.69880381    -0.58900
O957        O  0.17713568  0.64932912  0.59528296    -0.49000
O958        O  0.19926151  0.63597146  0.67942907    -0.55400
C959        C  0.18796863  0.56904387  0.61389384     0.84700
O960        O  0.11789786  0.59765004  0.64640695    -0.57300
O961        O  0.18063742  0.67583619  0.64178272    -0.60600
In962      In  0.31487018  0.61999743  0.99083772     1.36900
C963        C  0.28925537  0.62015700  0.93054837     0.77100
O964        O  0.29239720  0.56941227  0.98958872    -0.61300
O965        O  0.30491425  0.58932302  0.53728308    -0.52200
C966        C  0.37487392  0.62148346  0.98833683     0.69800
O967        O  0.35985778  0.59465854  0.98614482    -0.47100
C968        C  0.29223700  0.67446488  0.51997173     0.74500
O969        O  0.31752700  0.61862705  0.93408117    -0.58900
O970        O  0.30351829  0.65082212  0.53677419    -0.49000
O971        O  0.27466316  0.62149687  0.95775296    -0.55400
C972        C  0.29190370  0.56613451  0.52108597     0.84700
O973        O  0.35914446  0.64748583  0.49170674    -0.57300
O974        O  0.29417752  0.67117520  0.98848359    -0.60600
In975      In  0.16254881  0.87101350  0.98959560     1.36900
C976        C  0.18764724  0.86978199  0.92879246     0.77100
O977        O  0.18474596  0.92168791  0.98909848    -0.61300
O978        O  0.17362644  0.90069327  0.53661113    -0.52200
C979        C  0.10230064  0.87377105  0.98722305     0.69800
O980        O  0.11670515  0.84659396  0.98798494    -0.47100
C981        C  0.18517451  0.81680890  0.51944641     0.74500
O982        O  0.15943967  0.86880989  0.93285111    -0.58900
O983        O  0.17414502  0.84095002  0.53588147    -0.49000
O984        O  0.20261933  0.87180546  0.95575761    -0.55400
C985        C  0.18588533  0.92441724  0.52072486     0.84700
O986        O  0.11874188  0.89958658  0.48766058    -0.57300
O987        O  0.18268259  0.81923492  0.98796294    -0.60600
In988      In  0.31519631  0.86968555  0.64148362     1.36900
C989        C  0.29043175  0.86764127  0.70226821     0.77100
O990        O  0.28734467  0.91641948  0.64333143    -0.61300
O991        O  0.30766042  0.90366449  0.59669632    -0.52200
C992        C  0.37521064  0.86897378  0.64494996     0.69800
O993        O  0.36003682  0.89550024  0.64736788    -0.47100
C994        C  0.29338700  0.81648356  0.60923702     0.74500
O995        O  0.31702837  0.87802245  0.69767039    -0.58900
O996        O  0.30142989  0.84271907  0.59392798    -0.49000
O997        O  0.27704280  0.85805079  0.67588755    -0.55400
C998        C  0.29056439  0.92328297  0.61266566     0.84700
O999        O  0.35965738  0.84280546  0.64073737    -0.57300
O1000       O  0.29862903  0.81655137  0.64046410    -0.60600
In1001     In  0.23868570  0.99567655  0.56758063     1.36900
C1002       C  0.20411904  0.54125587  0.59777010     0.77100
O1003       O  0.27531524  0.53481115  0.56890350    -0.61300
O1004       O  0.25784392  0.51969819  0.52127847    -0.52200
C1005       C  0.27395987  0.95062060  0.59676454     0.69800
O1006       O  0.25589297  0.96879763  0.61309589    -0.47100
C1007       C  0.20236022  0.95168423  0.53748465     0.74500
O1008       O  0.22301395  0.52374371  0.61349110    -0.58900
O1009       O  0.21885440  0.97177526  0.52135845    -0.49000
O1010       O  0.20151668  0.53416053  0.56688886    -0.55400
C1011       C  0.27520299  0.53903834  0.53745272     0.84700
O1012       O  0.27519144  0.95656212  0.56561688    -0.57300
O1013       O  0.20285937  0.95548165  0.56907213    -0.60600
In1014     In  0.23892902  0.74598176  0.56416682     1.36900
C1015       C  0.27573319  0.70209594  0.53562210     0.77100
O1016       O  0.27231942  0.78834693  0.56135018    -0.61300
O1017       O  0.26301157  0.76699732  0.60929243    -0.52200
C1018       C  0.20195059  0.78959682  0.53544186     0.69800
O1019       O  0.21639669  0.76802448  0.51865547    -0.47100
C1020       C  0.20204143  0.70261464  0.59370805     0.74500
O1021       O  0.26049764  0.72267815  0.51864110    -0.58900
O1022       O  0.21562103  0.72543949  0.60988246    -0.49000
O1023       O  0.27372837  0.70548195  0.56712942    -0.55400
C1024       C  0.27652389  0.78942440  0.59276440     0.84700
O1025       O  0.20495042  0.78750969  0.56696200    -0.57300
O1026       O  0.20571528  0.70333302  0.56223064    -0.60600
In1027     In  0.81587707  0.62670725  0.64358512     1.36900
C1028       C  0.79107264  0.62507267  0.70430449     0.77100
O1029       O  0.78942751  0.67463058  0.64489207    -0.61300
O1030       O  0.80649454  0.65851901  0.59770030    -0.52200
C1031       C  0.87602539  0.62676311  0.64547429     0.69800
O1032       O  0.86066308  0.65285827  0.65022770    -0.47100
C1033       C  0.79339937  0.57222022  0.61358824     0.74500
O1034       O  0.81831962  0.63337700  0.70018657    -0.58900
O1035       O  0.80162584  0.59782697  0.59735217    -0.49000
O1036       O  0.77725595  0.61748298  0.67758100    -0.55400
C1037       C  0.79064608  0.67940251  0.61363806     0.84700
O1038       O  0.86061144  0.60074917  0.63983746    -0.57300
O1039       O  0.79879946  0.57342912  0.64479225    -0.60600
In1040     In  0.66202679  0.62060896  0.99023374     1.36900
C1041       C  0.68650908  0.61779470  0.92927624     0.77100
O1042       O  0.68721371  0.66956018  0.98870410    -0.61300
O1043       O  0.66972253  0.65388396  0.53575896    -0.52200
C1044       C  0.60200318  0.62180593  0.98822325     0.69800
O1045       O  0.61673933  0.59564837  0.99471993    -0.47100
C1046       C  0.68487746  0.56806481  0.52223058     0.74500
O1047       O  0.65838158  0.62002150  0.93348169    -0.58900
O1048       O  0.67545523  0.59373351  0.53753438    -0.49000
O1049       O  0.70161895  0.61648618  0.95615991    -0.55400
C1050       C  0.68508571  0.67517434  0.51983447     0.84700
O1051       O  0.61801748  0.64725305  0.48230886    -0.57300
O1052       O  0.68051302  0.56806871  0.99083400    -0.60600
In1053     In  0.81402120  0.87414377  0.99316341     1.36900
C1054       C  0.78780840  0.87383996  0.93273539     0.77100
O1055       O  0.79055679  0.82393850  0.99042332    -0.61300
O1056       O  0.80093638  0.84387392  0.53875945    -0.52200
C1057       C  0.87450556  0.87544017  0.99129102     0.69800
O1058       O  0.85848070  0.90000260  0.98288380    -0.47100
C1059       C  0.79293595  0.92835430  0.52466365     0.74500
O1060       O  0.81439670  0.86344335  0.93719663    -0.58900
O1061       O  0.80265441  0.90326355  0.54050597    -0.49000
O1062       O  0.77489905  0.88390684  0.95919036    -0.55400
C1063       C  0.78858978  0.82072259  0.52189538     0.84700
O1064       O  0.85960669  0.85010885  0.50034906    -0.57300
O1065       O  0.79610041  0.92670457  0.99318883    -0.60600
In1066     In  0.66195103  0.87507469  0.64304460     1.36900
C1067       C  0.68617667  0.87736573  0.70458520     0.77100
O1068       O  0.68691915  0.82623545  0.64395485    -0.61300
O1069       O  0.66917530  0.84189718  0.59710140    -0.52200
C1070       C  0.60194151  0.87293395  0.64350539     0.69800
O1071       O  0.61805223  0.84838907  0.65182085    -0.47100
C1072       C  0.68475821  0.92930715  0.61347875     0.74500
O1073       O  0.65800418  0.87600228  0.69993945    -0.58900
O1074       O  0.67567904  0.90409552  0.59698797    -0.49000
O1075       O  0.70149217  0.87801490  0.67782329    -0.55400
C1076       C  0.68438853  0.82049313  0.61290432     0.84700
O1077       O  0.61655779  0.89888542  0.63560857    -0.57300
O1078       O  0.68030498  0.92780486  0.64477503    -0.60600
In1079     In  0.73949468  0.99983055  0.56941277     1.36900
C1080       C  0.70174110  0.95663876  0.59785541     0.77100
O1081       O  0.70555194  0.54139538  0.57078014    -0.61300
O1082       O  0.71644101  0.51965724  0.52324565    -0.52200
C1083       C  0.77645069  0.54460794  0.59783764     0.69800
O1084       O  0.76274223  0.52257118  0.61474148    -0.47100
C1085       C  0.77653302  0.95579384  0.54096098     0.74500
O1086       O  0.71661130  0.97785069  0.61484792    -0.58900
O1087       O  0.76251904  0.97759852  0.52426054    -0.49000
O1088       O  0.70465854  0.95900538  0.56638261    -0.55400
C1089       C  0.70206053  0.54185304  0.53922921     0.84700
O1090       O  0.77256847  0.54257045  0.56641723    -0.57300
O1091       O  0.77325451  0.95788536  0.57245139    -0.60600
In1092     In  0.73601615  0.74827581  0.56672701     1.36900
C1093       C  0.70014520  0.79263519  0.59649084     0.77100
O1094       O  0.77120760  0.78892342  0.56901533    -0.61300
O1095       O  0.75488995  0.77378061  0.52090479    -0.52200
C1096       C  0.77301304  0.70558620  0.59711897     0.69800
O1097       O  0.75440180  0.72343656  0.61301008    -0.47100
C1098       C  0.70115719  0.70289715  0.53632985     0.74500
O1099       O  0.71749636  0.77361051  0.61265063    -0.58900
O1100       O  0.71904947  0.72167337  0.52048964    -0.49000
O1101       O  0.69930419  0.78733694  0.56511721    -0.55400
C1102       C  0.77159076  0.79341427  0.53760347     0.84700
O1103       O  0.77376477  0.71058676  0.56579526    -0.57300
O1104       O  0.69971165  0.70853291  0.56759356    -0.60600
C1105       C  0.73014887  0.89033667  0.86440751    -0.11300
C1106       C  0.74375385  0.87569442  0.83593769     0.05800
C1107       C  0.77202474  0.86025977  0.83972930    -0.10100
C1108       C  0.78639803  0.85966156  0.87114149    -0.11700
C1109       C  0.77276264  0.87432089  0.89947222    -0.01500
C1110       C  0.74446774  0.88960237  0.89583425    -0.10600
C1111       C  0.72868900  0.87666972  0.80237020     0.05900
H1112       H  0.78291871  0.84829125  0.81845698     0.07800
H1113       H  0.80813257  0.84756702  0.87328775     0.11300
H1114       H  0.73348857  0.90123040  0.91723421     0.11500
H1115       H  0.70860504  0.90282545  0.86231294     0.07800
C1116       C  0.69732223  0.87217190  0.79936662    -0.11300
C1117       C  0.68334797  0.87276011  0.76766558    -0.10600
C1118       C  0.70044556  0.87775866  0.73834356    -0.01500
C1119       C  0.73171692  0.88243657  0.74133844    -0.11700
C1120       C  0.74564981  0.88199032  0.77295433    -0.10100
H1121       H  0.68365199  0.86761818  0.82144657     0.07800
H1122       H  0.65920835  0.86889994  0.76606503     0.11500
H1123       H  0.74545983  0.88647752  0.71920093     0.11200
H1124       H  0.76975145  0.88611972  0.77436357     0.07800
C1125       C  0.77576692  0.63447910  0.79770582    -0.11300
C1126       C  0.74596702  0.62238449  0.79989275     0.05800
C1127       C  0.73137416  0.61154838  0.77032937    -0.10100
C1128       C  0.74617321  0.61262224  0.73939662    -0.11700
C1129       C  0.77598637  0.62429283  0.73731373    -0.01500
C1130       C  0.79069487  0.63528674  0.76668345    -0.10600
C1131       C  0.73031496  0.62051382  0.83290279     0.05900
H1132       H  0.70866242  0.60155689  0.77112522     0.07800
H1133       H  0.73431621  0.60394639  0.71710472     0.11300
H1134       H  0.81360896  0.64466673  0.76564420     0.11500
H1135       H  0.78746959  0.64360599  0.81989972     0.07800
C1136       C  0.74634440  0.61188009  0.86213896    -0.11300
C1137       C  0.73189111  0.61056444  0.89329695    -0.10600
C1138       C  0.70100864  0.61747282  0.89588898    -0.01500
C1139       C  0.68469898  0.62536330  0.86669347    -0.11700
C1140       C  0.69924380  0.62705838  0.83548408    -0.10100
H1141       H  0.77010122  0.60588703  0.86096554     0.07800
H1142       H  0.74494096  0.60419478  0.91542332     0.11500
H1143       H  0.66086760  0.63099838  0.86810600     0.11200
H1144       H  0.68629090  0.63417771  0.81356287     0.07800
C1145       C  0.45575963  0.83897187  0.63986786    -0.11300
C1146       C  0.47190284  0.86881289  0.64604853     0.05800
C1147       C  0.45590252  0.89835888  0.65334205    -0.10100
C1148       C  0.42445684  0.89828927  0.65349986    -0.11700
C1149       C  0.40838632  0.86864671  0.64649897    -0.01500
C1150       C  0.42429553  0.83889031  0.64015030    -0.10600
C1151       C  0.50527964  0.86930920  0.64445518     0.05900
H1152       H  0.46771541  0.92158152  0.65890166     0.07800
H1153       H  0.41272008  0.92150407  0.65879135     0.11300
H1154       H  0.41241021  0.81566821  0.63470950     0.11500
H1155       H  0.46743008  0.81587397  0.63393836     0.07800
C1156       C  0.52218635  0.84272942  0.65779951    -0.11300
C1157       C  0.55362985  0.84371023  0.65703820    -0.10600
C1158       C  0.56876490  0.87137530  0.64313571    -0.01500
C1159       C  0.55194388  0.89761635  0.62914546    -0.11700
C1160       C  0.52050506  0.89655398  0.62971316    -0.10100
H1161       H  0.51112384  0.82150989  0.66951537     0.07800
H1162       H  0.56610507  0.82311019  0.66791547     0.11500
H1163       H  0.56309004  0.91903609  0.61788573     0.11200
H1164       H  0.50809949  0.91704623  0.61856472     0.07800
C1165       C  0.02219523  0.90667158  0.49014790    -0.11300
C1166       C  0.00523109  0.87684746  0.98707907     0.05800
C1167       C  0.02068956  0.84635456  0.98267525    -0.10100
C1168       C  0.05213983  0.84549862  0.98241372    -0.11700
C1169       C  0.06900437  0.87513740  0.98619029    -0.01500
C1170       C  0.05374821  0.90582027  0.48959415    -0.10600
C1171       C  0.97164251  0.87719226  0.98887523     0.05900
H1172       H  0.00846256  0.82298237  0.97931777     0.07800
H1173       H  0.06328689  0.82152665  0.97936212     0.11300
H1174       H  0.06621054  0.92909055  0.49252952     0.11500
H1175       H  0.01114606  0.93058671  0.49384923     0.07800
C1176       C  0.95595046  0.85063116  0.50436362    -0.11300
C1177       C  0.92447131  0.85007340  0.50505402    -0.10600
C1178       C  0.90784512  0.87626841  0.99068873    -0.01500
C1179       C  0.92336258  0.90321968  0.97585620    -0.11700
C1180       C  0.95490484  0.90363484  0.97484386    -0.10100
H1181       H  0.96799783  0.83024347  0.51618161     0.07800
H1182       H  0.91312397  0.82915961  0.51700907     0.11500
H1183       H  0.91108995  0.92377505  0.96458718     0.11200
H1184       H  0.96613109  0.92433234  0.96240625     0.07800
C1185       C  0.27490066  0.88245462  0.79482187    -0.11300
C1186       C  0.24636664  0.86735813  0.79861969     0.05800
C1187       C  0.23272916  0.85221565  0.77033203    -0.10100
C1188       C  0.24716166  0.85229155  0.73908352    -0.11700
C1189       C  0.27569137  0.86716297  0.73550199    -0.01500
C1190       C  0.28948748  0.88215686  0.76362322    -0.10600
C1191       C  0.23101761  0.86733608  0.83195407     0.05900
H1192       H  0.21105670  0.83982114  0.77236995     0.07800
H1193       H  0.23606358  0.84049263  0.71776525     0.11300
H1194       H  0.31136885  0.89408825  0.76140223     0.11500
H1195       H  0.28582044  0.89498367  0.81581757     0.07800
C1196       C  0.24786973  0.86470033  0.86185967    -0.11300
C1197       C  0.23367993  0.86552008  0.89322015    -0.10600
C1198       C  0.20226230  0.86853866  0.89544143    -0.01500
C1199       C  0.18522832  0.87048327  0.86570966    -0.11700
C1200       C  0.19946409  0.87009943  0.83426027    -0.10100
H1201       H  0.27209403  0.86168300  0.86111638     0.07800
H1202       H  0.24732712  0.86361369  0.91576685     0.11500
H1203       H  0.16093918  0.87287456  0.86677596     0.11200
H1204       H  0.18578146  0.87266461  0.81184890     0.07800
C1205       C  0.45578311  0.59341234  0.98107346    -0.11300
C1206       C  0.47167959  0.62355421  0.98674930     0.05800
C1207       C  0.45527888  0.65326441  0.49207330    -0.10100
C1208       C  0.42378112  0.65268038  0.49221565    -0.11700
C1209       C  0.40807248  0.62237461  0.98721415    -0.01500
C1210       C  0.42435795  0.59280924  0.98146667    -0.10600
C1211       C  0.50518075  0.62366983  0.98754017     0.05900
H1212       H  0.46675489  0.67685101  0.49689293     0.07800
H1213       H  0.41172719  0.67585569  0.49672752     0.11300
H1214       H  0.41279363  0.56914734  0.97725303     0.11500
H1215       H  0.46763222  0.57020528  0.97609825     0.07800
C1216       C  0.52085933  0.59638066  0.00140236    -0.11300
C1217       C  0.55227903  0.59573760  0.00133757    -0.10600
C1218       C  0.56878954  0.62258995  0.98790092    -0.01500
C1219       C  0.55331112  0.65021230  0.47458586    -0.11700
C1220       C  0.52179975  0.65069320  0.47425279    -0.10100
H1221       H  0.50885161  0.57552044  0.01258553     0.07800
H1222       H  0.56367166  0.57432968  0.01212877     0.11500
H1223       H  0.56556505  0.67125047  0.46404877     0.11200
H1224       H  0.51049910  0.67192117  0.46304340     0.07800
C1225       C  0.95653382  0.59813011  0.63515198    -0.11300
C1226       C  0.97282584  0.62611966  0.64712047     0.05800
C1227       C  0.95685766  0.65432382  0.65878068    -0.10100
C1228       C  0.92537640  0.65461153  0.65819696    -0.11700
C1229       C  0.90923969  0.62658179  0.64627837    -0.01500
C1230       C  0.92509367  0.59830410  0.63491982    -0.10600
C1231       C  0.00629993  0.62591899  0.64710276     0.05900
H1232       H  0.96867433  0.67608767  0.66866853     0.07800
H1233       H  0.91365289  0.67666076  0.66728989     0.11300
H1234       H  0.91316820  0.57641928  0.62541117     0.11500
H1235       H  0.96807021  0.57623906  0.62542076     0.07800
C1236       C  0.02215852  0.59636056  0.65455279    -0.11300
C1237       C  0.05358803  0.59590132  0.65365152    -0.10600
C1238       C  0.06984599  0.62505435  0.64561868    -0.01500
C1239       C  0.05415283  0.65473084  0.63861055    -0.11700
C1240       C  0.02268987  0.65513226  0.63918965    -0.10100
H1241       H  0.01029333  0.57358738  0.66136141     0.07800
H1242       H  0.06517721  0.57275425  0.65941521     0.11500
H1243       H  0.06618948  0.67753004  0.63222976     0.11200
H1244       H  0.01121661  0.67817157  0.63282302     0.07800
C1245       C  0.20017274  0.60819107  0.79725491    -0.11300
C1246       C  0.22813321  0.62434658  0.80204499     0.05800
C1247       C  0.24092185  0.64210214  0.77509352    -0.10100
C1248       C  0.22657076  0.64293542  0.74382089    -0.11700
C1249       C  0.19902165  0.62620445  0.73883496    -0.01500
C1250       C  0.18569101  0.60921665  0.76592361    -0.10600
C1251       C  0.24398179  0.62270763  0.83495125     0.07500
H1252       H  0.26206428  0.65545237  0.77816903     0.07800
H1253       H  0.23721606  0.65645275  0.72340891     0.11300
H1254       H  0.16449093  0.59602161  0.76265732     0.11500
H1255       H  0.18986178  0.59406736  0.81743461     0.07800
C1256       C  0.22768730  0.62462787  0.86520283    -0.11300
C1257       C  0.24253517  0.62352865  0.89616357    -0.10600
C1258       C  0.27402104  0.62062283  0.89756841    -0.01500
C1259       C  0.29043424  0.61853373  0.86745200    -0.11700
C1260       C  0.27553949  0.61950396  0.83638661    -0.10100
H1261       H  0.20343507  0.62760549  0.86498079     0.07800
H1262       H  0.22934304  0.62529167  0.91903636     0.11500
H1263       H  0.31473862  0.61614001  0.86790498     0.11200
H1264       H  0.28867724  0.61742746  0.81352236     0.07800
loop_ 
_geom_bond_atom_site_label_1 
_geom_bond_atom_site_label_2 
_geom_bond_distance 
_geom_bond_site_symmetry_2 
_ccdc_geom_bond_type 
In1           O3   2.249       .  S
In1           O4   2.263       .  S
In1          O12   2.246       .  S
In1           O6   2.251       .  S
In1           O8   2.260       .  S
In1           O9   2.249       .  S
In1          O10   2.223       .  S
In1          O13   2.243       .  S
C2            O8   1.263       .  A
C2           O10   1.259       .  A
C2          C301   1.473       .  S
O3           C11   1.257       .  A
O4           C11   1.259       .  A
C5           O12   1.258       .  A
C5            O6   1.258       .  A
C5          C290   1.474       .  S
C7            O9   1.261       .  A
C7           O13   1.259       .  A
C7           C72   1.462       .  S
C11          C54   1.465       .  S
In14         O16   2.245       .  S
In14         O19   2.249       .  S
In14         O21   2.253       .  S
In14         O23   2.215       .  S
In14         O26   2.241       .  S
In14        O333   2.258       .  S
In14        O341   2.247       .  S
In14        O338   2.250       .  S
C15          O21   1.265       .  A
C15          O23   1.260       .  A
C15         C310   1.471       .  S
O16         C340   1.256       .  A
O17        In330   2.258   1_554  S
O17          C24   1.260       .  A
C18          O19   1.260       .  A
C18         O341   1.258       .  A
C18         C261   1.475       .  S
C20          O22   1.261       .  A
C20         O342   1.257   1_554  A
C20          C67   1.461       .  S
O22        In330   2.250   1_554  S
C24         O332   1.256   1_554  A
C24          C63   1.462       .  S
O25        In330   2.247       .  S
O25         C334   1.258       .  A
O26         C336   1.257       .  A
In27         O29   2.243       .  S
In27         O32   2.253       .  S
In27         O34   2.255       .  S
In27         O36   2.230       .  S
In27         O39   2.251       .  S
In27        O346   2.255       .  S
In27        O354   2.259       .  S
In27        O351   2.256       .  S
C28          O34   1.263       .  A
C28          O36   1.260       .  A
C28         C250   1.474       .  S
O29         C353   1.259       .  A
O30        In343   2.255   1_554  S
O30          C37   1.260       .  A
C31          O32   1.260       .  A
C31         O354   1.259       .  A
C31         C221   1.480       .  S
C33          O35   1.260       .  A
C33         O355   1.257   1_554  A
C33          C70   1.464       .  S
O35        In343   2.256   1_554  S
C37         O345   1.259   1_554  A
C37          C59   1.463       .  S
O38        In343   2.259       .  S
O38         C347   1.259       .  A
O39         C349   1.257       .  A
In40         O42   2.240       .  S
In40         O43   2.263       .  S
In40         O51   2.250       .  S
In40         O45   2.249       .  S
In40         O47   2.251       .  S
In40         O48   2.248       .  S
In40         O49   2.225       .  S
In40         O52   2.238       .  S
C41          O47   1.263       .  A
C41          O49   1.259       .  A
C41         C241   1.472       .  S
O42          C50   1.256       .  A
O43          C50   1.260       .  A
C44          O51   1.258       .  A
C44          O45   1.259       .  A
C44         C201   1.474       .  S
C46          O48   1.262       .  A
C46          O52   1.259       .  A
C46          C76   1.461       .  S
C50          C57   1.462       .  S
In53         O64   2.254       .  S
In53         O58   2.238       .  S
In53         O61   2.238       .  S
In53         O65   2.253       .  S
In53        O687   2.249       .  S
In53        O688   2.241       .  S
In53        O692   2.244       .  S
In53        O694   2.257       .  S
C54          O60   1.260       .  A
C54          O62   1.260       .  A
O55        In685   2.249   1_545  S
O55          C63   1.259       .  A
O56        In685   2.241   1_545  S
O56          C63   1.260       .  A
C57          O64   1.260       .  A
C57          O58   1.260       .  A
C59          O61   1.260       .  A
C59          O65   1.261       .  A
O60        In685   2.244   1_545  S
O62        In685   2.257   1_545  S
In66         O68   2.245       .  S
In66         O69   2.240       .  S
In66         O77   2.245       .  S
In66         O71   2.246       .  S
In66         O73   2.243       .  S
In66         O74   2.245       .  S
In66         O75   2.241       .  S
In66         O78   2.246       .  S
C67          O73   1.262       .  A
C67          O75   1.259       .  A
O68          C76   1.259       .  A
O69          C76   1.261       .  A
C70          O77   1.260       .  A
C70          O71   1.262       .  A
C72          O74   1.261       .  A
C72          O78   1.259       .  A
In79         O81   2.245       .  S
In79         O82   2.261       .  S
In79         O90   2.248       .  S
In79         O84   2.256       .  S
In79         O86   2.260       .  S
In79         O87   2.248       .  S
In79         O88   2.213       .  S
In79         O91   2.251       .  S
C80          O86   1.264       .  A
C80          O88   1.258       .  A
C80         C181   1.471       .  S
O81          C89   1.256       .  A
O82          C89   1.259       .  A
C83          O90   1.258       .  A
C83          O84   1.259       .  A
C83         C281   1.475       .  S
C85          O87   1.262       .  A
C85          O91   1.260       .  A
C85         C135   1.467       .  S
C89         C148   1.463       .  S
In92         O94   2.245       .  S
In92         O97   2.247       .  S
In92         O99   2.255       .  S
In92        O101   2.224       .  S
In92        O104   2.251       .  S
In92        O411   2.258       .  S
In92        O419   2.250       .  S
In92        O416   2.245       .  S
C93          O99   1.264       .  A
C93         O101   1.260       .  A
C93         C190   1.473       .  S
O94         C418   1.257       .  A
O95        In408   2.258   1_554  S
O95         C102   1.259       .  A
C96          O97   1.260       .  A
C96         O419   1.259       .  A
C96         C270   1.475       .  S
C98         O100   1.259       .  A
C98         O420   1.259   1_554  A
C98         C141   1.462       .  S
O100       In408   2.245   1_554  S
C102        O410   1.257   1_554  A
C102        C150   1.463       .  S
O103       In408   2.250       .  S
O103        C412   1.259       .  A
O104        C414   1.259       .  A
In105       O107   2.253       .  S
In105       O110   2.262       .  S
In105       O112   2.257       .  S
In105       O114   2.233       .  S
In105       O117   2.242       .  S
In105       O424   2.253       .  S
In105       O432   2.261       .  S
In105       O429   2.260       .  S
C106        O112   1.265       .  A
C106        O114   1.260       .  A
C106        C161   1.478       .  S
O107        C431   1.258       .  A
O108       In421   2.253   1_554  S
O108        C115   1.259       .  A
C109        O110   1.258       .  A
C109        O432   1.258       .  A
C109        C230   1.481       .  S
C111        O113   1.260       .  A
C111        O433   1.257   1_554  A
C111        C137   1.464       .  S
O113       In421   2.260   1_554  S
C115        O423   1.258   1_554  A
C115        C154   1.464       .  S
O116       In421   2.261   1_554  S
O116        C425   1.258   1_554  A
O117        C427   1.257       .  A
In118       O120   2.243       .  S
In118       O121   2.268       .  S
In118       O129   2.251       .  S
In118       O123   2.245       .  S
In118       O125   2.262       .  S
In118       O126   2.249       .  S
In118       O127   2.233       .  S
In118       O130   2.250       .  S
C119        O125   1.265       .  A
C119        O127   1.261       .  A
C119        C170   1.480       .  S
O120        C128   1.256       .  A
O121        C128   1.259       .  A
C122        O129   1.259       .  A
C122        O123   1.259       .  A
C122        C210   1.474       .  S
C124        O126   1.260       .  A
C124        O130   1.258       .  A
C124        C132   1.462       .  S
C128        C145   1.464       .  S
In131       O138   2.249       .  S
In131       O139   2.242       .  S
In131       O140   2.242       .  S
In131       O143   2.252       .  S
In131       O765   2.244       .  S
In131       O766   2.244       .  S
In131       O774   2.248       .  S
In131       O768   2.255       .  S
C132        O138   1.262       .  A
C132        O140   1.258       .  A
O133       In763   2.244   1_545  S
O133        C141   1.260       .  A
O134       In763   2.244   1_545  S
O134        C141   1.261       .  A
C135        O142   1.259       .  A
C135        O136   1.262       .  A
O136       In763   2.255   1_545  S
C137        O139   1.260       .  A
C137        O143   1.259       .  A
O142       In763   2.248   1_545  S
In144       O146   2.247       .  S
In144       O147   2.247       .  S
In144       O155   2.255       .  S
In144       O149   2.243       .  S
In144       O151   2.236       .  S
In144       O152   2.240       .  S
In144       O153   2.259       .  S
In144       O156   2.255       .  S
C145        O151   1.260       .  A
C145        O153   1.261       .  A
O146        C154   1.259       .  A
O147        C154   1.260       .  A
C148        O155   1.259       .  A
C148        O149   1.260       .  A
C150        O152   1.259       .  A
C150        O156   1.260       .  A
C157        C158   1.406       .  A
C157        C162   1.398       .  A
C157        H167   1.083       .  S
C158        C163   1.489       .  S
C158        C159   1.408       .  A
C159        C160   1.399       .  A
C159        H164   1.082       .  S
C160        C161   1.402       .  A
C160        H165   1.084       .  S
C161        C162   1.406       .  A
C162        H166   1.082       .  S
C163        C168   1.408       .  A
C163        C172   1.405       .  A
C168        C169   1.401       .  A
C168        H173   1.081       .  S
C169        C170   1.404       .  A
C169        H174   1.084       .  S
C170        C171   1.405       .  A
C171        C172   1.397       .  A
C171        H175   1.082       .  S
C172        H176   1.084       .  S
C177        C178   1.409       .  A
C177        C182   1.398       .  A
C177        H187   1.082       .  S
C178        C183   1.484       .  S
C178        C179   1.404       .  A
C179        C180   1.393       .  A
C179        H184   1.083       .  S
C180        C181   1.404       .  A
C180        H185   1.082       .  S
C181        C182   1.402       .  A
C182        H186   1.083       .  S
C183        C188   1.404       .  A
C183        C192   1.409       .  A
C188        C189   1.394       .  A
C188        H193   1.083       .  S
C189        C190   1.403       .  A
C189        H194   1.082       .  S
C190        C191   1.402       .  A
C191        C192   1.398       .  A
C191        H195   1.084       .  S
C192        H196   1.081       .  S
C197        C198   1.406       .  A
C197        C202   1.397       .  A
C197        H207   1.082       .  S
C198        C203   1.484       .  S
C198        C199   1.406       .  A
C199        C200   1.396       .  A
C199        H204   1.083       .  S
C200        C201   1.403       .  A
C200        H205   1.083       .  S
C201        C202   1.404       .  A
C202        H206   1.084       .  S
C203        C208   1.405       .  A
C203        C212   1.406       .  A
C208        C209   1.397       .  A
C208        H213   1.083       .  S
C209        C210   1.404       .  A
C209        H214   1.083       .  S
C210        C211   1.403       .  A
C211        C212   1.397       .  A
C211        H215   1.083       .  S
C212        H216   1.082       .  S
C217        C222   1.402       .  A
C217        C534   1.409       .  A
C217        H227   1.082       .  S
C218        C223   1.493   1_455  S
C218        C219   1.408       .  A
C218        C533   1.409       .  A
C219        C220   1.397       .  A
C219        H224   1.083       .  S
C220        C221   1.403       .  A
C220        H225   1.084       .  S
C221        C538   1.406       .  A
C222        C537   1.405       .  A
C222        H226   1.083       .  S
C223        C232   1.408       .  A
C223        C544   1.408       .  A
C228        C229   1.398       .  A
C228        C539   1.408   1_554  A
C228        H233   1.083       .  S
C229        C546   1.403   1_554  A
C229        H234   1.083       .  S
C230        C231   1.405       .  A
C230        C545   1.403       .  A
C231        C232   1.401       .  A
C231        H235   1.083       .  S
C232        H236   1.083       .  S
C237        C238   1.409       .  A
C237        C242   1.397       .  A
C237        H247   1.081       .  S
C238        C243   1.488       .  S
C238        C239   1.406       .  A
C239        C240   1.395       .  A
C239        H244   1.083       .  S
C240        C241   1.404       .  A
C240        H245   1.082       .  S
C241        C242   1.401       .  A
C242        H246   1.084       .  S
C243        C248   1.406       .  A
C243        C252   1.409       .  A
C248        C249   1.395       .  A
C248        H253   1.083       .  S
C249        C250   1.404       .  A
C249        H254   1.082       .  S
C250        C251   1.402       .  A
C251        C252   1.398       .  A
C251        H255   1.084       .  S
C252        H256   1.081       .  S
C257        C258   1.407       .  A
C257        C262   1.396       .  A
C257        H267   1.083       .  S
C258        C263   1.488       .  S
C258        C575   1.407       .  A
C259        C260   1.399       .  A
C259        C574   1.407       .  A
C259        H264   1.083       .  S
C260        C577   1.405       .  A
C260        H265   1.083       .  S
C261        C262   1.402       .  A
C261        C576   1.405       .  A
C262        H266   1.084       .  S
C263        C268   1.407       .  A
C263        C588   1.407       .  A
C268        C269   1.396       .  A
C268        H273   1.083       .  S
C269        C270   1.402       .  A
C269        H274   1.083       .  S
C270        C587   1.404       .  A
C271        C272   1.399       .  A
C271        C586   1.404       .  A
C271        H275   1.083       .  S
C272        C579   1.407       .  A
C272        H276   1.082       .  S
C277        C278   1.407       .  A
C277        C282   1.396       .  A
C277        H287   1.082       .  S
C278        C283   1.486   1_655  S
C278        C279   1.407       .  A
C279        C280   1.398       .  A
C279        H284   1.083       .  S
C280        C281   1.404       .  A
C280        H285   1.083       .  S
C281        C282   1.403       .  A
C282        H286   1.084       .  S
C283        C288   1.407       .  A
C283        C292   1.407       .  A
C288        C289   1.396       .  A
C288        H293   1.083       .  S
C289        C290   1.403       .  A
C289        H294   1.083       .  S
C290        C291   1.403       .  A
C291        C292   1.397       .  A
C291        H295   1.083       .  S
C292        H296   1.082       .  S
C297        C298   1.408       .  A
C297        C302   1.399       .  A
C297        H307   1.081       .  S
C298        C303   1.483       .  S
C298        C299   1.404       .  A
C299        C300   1.394       .  A
C299        H304   1.084       .  S
C300        C301   1.404       .  A
C300        H305   1.082       .  S
C301        C302   1.403       .  A
C302        H306   1.084       .  S
C303        C308   1.403       .  A
C303        C312   1.409       .  A
C308        C309   1.393       .  A
C308        H313   1.084       .  S
C309        C310   1.404       .  A
C309        H314   1.082       .  S
C310        C311   1.402       .  A
C311        C312   1.398       .  A
C311        H315   1.084       .  S
C312        H316   1.081       .  S
In317       O319   2.249       .  S
In317       O320   2.263       .  S
In317       O328   2.246       .  S
In317       O322   2.251       .  S
In317       O324   2.260       .  S
In317       O325   2.249       .  S
In317       O326   2.223       .  S
In317       O329   2.243       .  S
C318        O324   1.263       .  A
C318        O326   1.259       .  A
C318        C617   1.473       .  S
O319        C327   1.257       .  A
O320        C327   1.259       .  A
C321        O328   1.258       .  A
C321        O322   1.258       .  A
C321        C606   1.474       .  S
C323        O325   1.261       .  A
C323        O329   1.259       .  A
C323        C388   1.462       .  S
C327        C370   1.465       .  S
In330       O332   2.245       .  S
In330       O335   2.249       .  S
In330       O337   2.253       .  S
In330       O339   2.215       .  S
In330       O342   2.241       .  S
C331        O337   1.265       .  A
C331        O339   1.260       .  A
C331        C626   1.471       .  S
O333        C340   1.260       .  A
C334        O335   1.260       .  A
C334        C577   1.475       .  S
C336        O338   1.261       .  A
C336        C383   1.461       .  S
C340        C379   1.462       .  S
In343       O345   2.243       .  S
In343       O348   2.253       .  S
In343       O350   2.255       .  S
In343       O352   2.230       .  S
In343       O355   2.251       .  S
C344        O350   1.263       .  A
C344        O352   1.260       .  A
C344        C566   1.474       .  S
O346        C353   1.260       .  A
C347        O348   1.260       .  A
C347        C537   1.480       .  S
C349        O351   1.260       .  A
C349        C386   1.464       .  S
C353        C375   1.463       .  S
In356       O358   2.240       .  S
In356       O359   2.263       .  S
In356       O367   2.250       .  S
In356       O361   2.249       .  S
In356       O363   2.251       .  S
In356       O364   2.248       .  S
In356       O365   2.225       .  S
In356       O368   2.238       .  S
C357        O363   1.263       .  A
C357        O365   1.259       .  A
C357        C557   1.472       .  S
O358        C366   1.256       .  A
O359        C366   1.260       .  A
C360        O367   1.258       .  A
C360        O361   1.259       .  A
C360        C517   1.474       .  S
C362        O364   1.262       .  A
C362        O368   1.259       .  A
C362        C392   1.461       .  S
C366        C373   1.462       .  S
In369      O1003   2.249       .  S
In369      O1004   2.241       .  S
In369       O380   2.254       .  S
In369       O374   2.238       .  S
In369      O1008   2.244       .  S
In369       O377   2.238       .  S
In369      O1010   2.257       .  S
In369       O381   2.253       .  S
C370        O376   1.260       .  A
C370        O378   1.260       .  A
O371      In1001   2.249   1_545  S
O371        C379   1.259       .  A
O372      In1001   2.241   1_545  S
O372        C379   1.260       .  A
C373        O380   1.260       .  A
C373        O374   1.260       .  A
C375        O377   1.260       .  A
C375        O381   1.261       .  A
O376      In1001   2.244   1_545  S
O378      In1001   2.257   1_545  S
In382       O384   2.245       .  S
In382       O385   2.240       .  S
In382       O393   2.245       .  S
In382       O387   2.246       .  S
In382       O389   2.243       .  S
In382       O390   2.245       .  S
In382       O391   2.241       .  S
In382       O394   2.246       .  S
C383        O389   1.262       .  A
C383        O391   1.259       .  A
O384        C392   1.259       .  A
O385        C392   1.261       .  A
C386        O393   1.260       .  A
C386        O387   1.262       .  A
C388        O390   1.261       .  A
C388        O394   1.259       .  A
In395       O397   2.245       .  S
In395       O398   2.261       .  S
In395       O406   2.248       .  S
In395       O400   2.256       .  S
In395       O402   2.260       .  S
In395       O403   2.248       .  S
In395       O404   2.213       .  S
In395       O407   2.251       .  S
C396        O402   1.264       .  A
C396        O404   1.258       .  A
C396        C497   1.471       .  S
O397        C405   1.256       .  A
O398        C405   1.259       .  A
C399        O406   1.258       .  A
C399        O400   1.259       .  A
C399        C597   1.475       .  S
C401        O403   1.262       .  A
C401        O407   1.260       .  A
C401        C451   1.467       .  S
C405        C464   1.463       .  S
In408       O410   2.245       .  S
In408       O413   2.247       .  S
In408       O415   2.255       .  S
In408       O417   2.224       .  S
In408       O420   2.251       .  S
C409        O415   1.264       .  A
C409        O417   1.260       .  A
C409        C506   1.473       .  S
O411        C418   1.259       .  A
C412        O413   1.260       .  A
C412        C586   1.475       .  S
C414        O416   1.259       .  A
C414        C457   1.462       .  S
C418        C466   1.463       .  S
In421       O423   2.253       .  S
In421       O426   2.262       .  S
In421       O428   2.257       .  S
In421       O430   2.233       .  S
In421       O433   2.242       .  S
C422        O428   1.265       .  A
C422        O430   1.260       .  A
C422        C477   1.478       .  S
O424        C431   1.259       .  A
C425        O426   1.258       .  A
C425        C546   1.481       .  S
C427        O429   1.260       .  A
C427        C453   1.464       .  S
C431        C470   1.464       .  S
In434       O436   2.243       .  S
In434       O437   2.268       .  S
In434       O445   2.251       .  S
In434       O439   2.245       .  S
In434       O441   2.262       .  S
In434       O442   2.249       .  S
In434       O443   2.233       .  S
In434       O446   2.250       .  S
C435        O441   1.265       .  A
C435        O443   1.261       .  A
C435        C486   1.480       .  S
O436        C444   1.256       .  A
O437        C444   1.259       .  A
C438        O445   1.259       .  A
C438        O439   1.259       .  A
C438        C526   1.474       .  S
C440        O442   1.260       .  A
C440        O446   1.258       .  A
C440        C448   1.462       .  S
C444        C461   1.464       .  S
In447      O1081   2.244       .  S
In447      O1082   2.244       .  S
In447      O1090   2.248       .  S
In447      O1084   2.255       .  S
In447       O454   2.249       .  S
In447       O455   2.242       .  S
In447       O456   2.242       .  S
In447       O459   2.252       .  S
C448        O454   1.262       .  A
C448        O456   1.258       .  A
O449      In1079   2.244   1_545  S
O449        C457   1.260       .  A
O450      In1079   2.244   1_545  S
O450        C457   1.261       .  A
C451        O458   1.259       .  A
C451        O452   1.262       .  A
O452      In1079   2.255   1_545  S
C453        O455   1.260       .  A
C453        O459   1.259       .  A
O458      In1079   2.248   1_545  S
In460       O462   2.247       .  S
In460       O463   2.247       .  S
In460       O471   2.255       .  S
In460       O465   2.243       .  S
In460       O467   2.236       .  S
In460       O468   2.240       .  S
In460       O469   2.259       .  S
In460       O472   2.255       .  S
C461        O467   1.260       .  A
C461        O469   1.261       .  A
O462        C470   1.259       .  A
O463        C470   1.260       .  A
C464        O471   1.259       .  A
C464        O465   1.260       .  A
C466        O468   1.259       .  A
C466        O472   1.260       .  A
C473        C474   1.406       .  A
C473        C478   1.398       .  A
C473        H483   1.083       .  S
C474        C479   1.489       .  S
C474        C475   1.408       .  A
C475        C476   1.399       .  A
C475        H480   1.082       .  S
C476        C477   1.402       .  A
C476        H481   1.084       .  S
C477        C478   1.406       .  A
C478        H482   1.082       .  S
C479        C484   1.408       .  A
C479        C488   1.405       .  A
C484        C485   1.401       .  A
C484        H489   1.081       .  S
C485        C486   1.404       .  A
C485        H490   1.084       .  S
C486        C487   1.405       .  A
C487        C488   1.397       .  A
C487        H491   1.082       .  S
C488        H492   1.083       .  S
C493        C494   1.409       .  A
C493        C498   1.398       .  A
C493        H503   1.082       .  S
C494        C499   1.484       .  S
C494        C495   1.404       .  A
C495        C496   1.393       .  A
C495        H500   1.083       .  S
C496        C497   1.404       .  A
C496        H501   1.082       .  S
C497        C498   1.402       .  A
C498        H502   1.083       .  S
C499        C504   1.404       .  A
C499        C508   1.409       .  A
C504        C505   1.394       .  A
C504        H509   1.083       .  S
C505        C506   1.403       .  A
C505        H510   1.082       .  S
C506        C507   1.402       .  A
C507        C508   1.398       .  A
C507        H511   1.084       .  S
C508        H512   1.081       .  S
C513        C514   1.406       .  A
C513        C518   1.397       .  A
C513        H523   1.083       .  S
C514        C519   1.484       .  S
C514        C515   1.406       .  A
C515        C516   1.396       .  A
C515        H520   1.083       .  S
C516        C517   1.403       .  A
C516        H521   1.083       .  S
C517        C518   1.404       .  A
C518        H522   1.084       .  S
C519        C524   1.405       .  A
C519        C528   1.406       .  A
C524        C525   1.397       .  A
C524        H529   1.083       .  S
C525        C526   1.404       .  A
C525        H530   1.083       .  S
C526        C527   1.403       .  A
C527        C528   1.397       .  A
C527        H531   1.083       .  S
C528        H532   1.082       .  S
C533        C538   1.402       .  A
C533        H543   1.083       .  S
C534        C539   1.493   1_455  S
C534        C535   1.408       .  A
C535        C536   1.397       .  A
C535        H540   1.083       .  S
C536        C537   1.403       .  A
C536        H541   1.084       .  S
C538        H542   1.083       .  S
C539        C548   1.408       .  A
C544        C545   1.398       .  A
C544        H549   1.082       .  S
C545        H550   1.083       .  S
C546        C547   1.405       .  A
C547        C548   1.401       .  A
C547        H551   1.083       .  S
C548        H552   1.083       .  S
C553        C554   1.409       .  A
C553        C558   1.397       .  A
C553        H563   1.081       .  S
C554        C559   1.488       .  S
C554        C555   1.406       .  A
C555        C556   1.395       .  A
C555        H560   1.083       .  S
C556        C557   1.404       .  A
C556        H561   1.082       .  S
C557        C558   1.401       .  A
C558        H562   1.084       .  S
C559        C564   1.406       .  A
C559        C568   1.409       .  A
C564        C565   1.395       .  A
C564        H569   1.083       .  S
C565        C566   1.404       .  A
C565        H570   1.082       .  S
C566        C567   1.402       .  A
C567        C568   1.398       .  A
C567        H571   1.084       .  S
C568        H572   1.081       .  S
C573        C574   1.407       .  A
C573        C578   1.396       .  A
C573        H583   1.083       .  S
C574        C579   1.488       .  S
C575        C576   1.399       .  A
C575        H580   1.083       .  S
C576        H581   1.083       .  S
C577        C578   1.402       .  A
C578        H582   1.084       .  S
C579        C584   1.407   1_556  A
C584        C585   1.396       .  A
C584        H589   1.083       .  S
C585        C586   1.402   1_554  A
C585        H590   1.083       .  S
C587        C588   1.399       .  A
C587        H591   1.083       .  S
C588        H592   1.082       .  S
C593        C594   1.407       .  A
C593        C598   1.396       .  A
C593        H603   1.083       .  S
C594        C599   1.486   1_655  S
C594        C595   1.407       .  A
C595        C596   1.398       .  A
C595        H600   1.083       .  S
C596        C597   1.404       .  A
C596        H601   1.083       .  S
C597        C598   1.403       .  A
C598        H602   1.084       .  S
C599        C604   1.407       .  A
C599        C608   1.407       .  A
C604        C605   1.396       .  A
C604        H609   1.083       .  S
C605        C606   1.403       .  A
C605        H610   1.083       .  S
C606        C607   1.403       .  A
C607        C608   1.397       .  A
C607        H611   1.083       .  S
C608        H612   1.082       .  S
C613        C614   1.408       .  A
C613        C618   1.399       .  A
C613        H623   1.082       .  S
C614        C619   1.483       .  S
C614        C615   1.404       .  A
C615        C616   1.394       .  A
C615        H620   1.084       .  S
C616        C617   1.404       .  A
C616        H621   1.082       .  S
C617        C618   1.403       .  A
C618        H622   1.084       .  S
C619        C624   1.403       .  A
C619        C628   1.409       .  A
C624        C625   1.393       .  A
C624        H629   1.084       .  S
C625        C626   1.404       .  A
C625        H630   1.082       .  S
C626        C627   1.402       .  A
C627        C628   1.398       .  A
C627        H631   1.084       .  S
C628        H632   1.081       .  S
In633       O635   2.249       .  S
In633       O636   2.263       .  S
In633       O644   2.246       .  S
In633       O638   2.251       .  S
In633       O640   2.260       .  S
In633       O641   2.249       .  S
In633       O642   2.223       .  S
In633       O645   2.243       .  S
C634        O640   1.263       .  A
C634        O642   1.259       .  A
C634        C933   1.473       .  S
O635        C643   1.257       .  A
O636        C643   1.259       .  A
C637        O644   1.258       .  A
C637        O638   1.258       .  A
C637        C922   1.474       .  S
C639        O641   1.261       .  A
C639        O645   1.259       .  A
C639        C704   1.462       .  S
C643        C686   1.465       .  S
In646       O648   2.245       .  S
In646       O965   2.258       .  S
In646       O973   2.247       .  S
In646       O651   2.249       .  S
In646       O653   2.253       .  S
In646       O970   2.250       .  S
In646       O655   2.215       .  S
In646       O658   2.241       .  S
C647        O653   1.265       .  A
C647        O655   1.260       .  A
C647        C942   1.471       .  S
O648        C972   1.256       .  A
O649       In962   2.258   1_554  S
O649        C656   1.260       .  A
C650        O973   1.258       .  A
C650        O651   1.260       .  A
C650        C893   1.475       .  S
C652        O654   1.261       .  A
C652        O974   1.257   1_554  A
C652        C699   1.461       .  S
O654       In962   2.250   1_554  S
C656        O964   1.256   1_554  A
C656        C695   1.462       .  S
O657       In962   2.247       .  S
O657        C966   1.258       .  A
O658        C968   1.257       .  A
In659       O661   2.243       .  S
In659       O978   2.255       .  S
In659       O986   2.259       .  S
In659       O664   2.253       .  S
In659       O666   2.255       .  S
In659       O983   2.256       .  S
In659       O668   2.230       .  S
In659       O671   2.251       .  S
C660        O666   1.263       .  A
C660        O668   1.260       .  A
C660        C882   1.474       .  S
O661        C985   1.259       .  A
O662       In975   2.255   1_554  S
O662        C669   1.260       .  A
C663        O986   1.259       .  A
C663        O664   1.260       .  A
C663        C853   1.480       .  S
C665        O667   1.260       .  A
C665        O987   1.257   1_554  A
C665        C702   1.464       .  S
O667       In975   2.256   1_554  S
C669        O977   1.259   1_554  A
C669        C691   1.463       .  S
O670       In975   2.259       .  S
O670        C979   1.259       .  A
O671        C981   1.257       .  A
In672       O674   2.240       .  S
In672       O675   2.263       .  S
In672       O683   2.250       .  S
In672       O677   2.249       .  S
In672       O679   2.251       .  S
In672       O680   2.248       .  S
In672       O681   2.225       .  S
In672       O684   2.238       .  S
C673        O679   1.263       .  A
C673        O681   1.259       .  A
C673        C873   1.472       .  S
O674        C682   1.256       .  A
O675        C682   1.260       .  A
C676        O683   1.258       .  A
C676        O677   1.259       .  A
C676        C833   1.474       .  S
C678        O680   1.262       .  A
C678        O684   1.259       .  A
C678        C708   1.461       .  S
C682        C689   1.462       .  S
In685       O696   2.254       .  S
In685       O690   2.238       .  S
In685       O693   2.238       .  S
In685       O697   2.253       .  S
C686        O692   1.260       .  A
C686        O694   1.260       .  A
O687        C695   1.259       .  A
O688        C695   1.260       .  A
C689        O696   1.260       .  A
C689        O690   1.260       .  A
C691        O693   1.260       .  A
C691        O697   1.261       .  A
In698       O700   2.245       .  S
In698       O701   2.240       .  S
In698       O709   2.245       .  S
In698       O703   2.246       .  S
In698       O705   2.243       .  S
In698       O706   2.245       .  S
In698       O707   2.241       .  S
In698       O710   2.246       .  S
C699        O705   1.262       .  A
C699        O707   1.259       .  A
O700        C708   1.259       .  A
O701        C708   1.261       .  A
C702        O709   1.260       .  A
C702        O703   1.262       .  A
C704        O706   1.261       .  A
C704        O710   1.259       .  A
In711       O713   2.245       .  S
In711       O714   2.261       .  S
In711       O722   2.248       .  S
In711       O716   2.256       .  S
In711       O718   2.260       .  S
In711       O719   2.248       .  S
In711       O720   2.213       .  S
In711       O723   2.251       .  S
C712        O718   1.264       .  A
C712        O720   1.258       .  A
C712        C813   1.471       .  S
O713        C721   1.256       .  A
O714        C721   1.259       .  A
C715        O722   1.258       .  A
C715        O716   1.259       .  A
C715        C913   1.475       .  S
C717        O719   1.262       .  A
C717        O723   1.260       .  A
C717        C767   1.467       .  S
C721        C780   1.463       .  S
In724       O726   2.245       .  S
In724      O1043   2.258       .  S
In724      O1051   2.250       .  S
In724       O729   2.247       .  S
In724       O731   2.255       .  S
In724      O1048   2.245       .  S
In724       O733   2.224       .  S
In724       O736   2.251       .  S
C725        O731   1.264       .  A
C725        O733   1.260       .  A
C725        C822   1.473       .  S
O726       C1050   1.257       .  A
O727      In1040   2.258   1_554  S
O727        C734   1.259       .  A
C728       O1051   1.259       .  A
C728        O729   1.260       .  A
C728        C902   1.475       .  S
C730        O732   1.259       .  A
C730       O1052   1.259   1_554  A
C730        C773   1.462       .  S
O732      In1040   2.245   1_554  S
C734       O1042   1.257   1_554  A
C734        C782   1.463       .  S
O735      In1040   2.250       .  S
O735       C1044   1.259       .  A
O736       C1046   1.259       .  A
In737       O739   2.253       .  S
In737      O1056   2.253       .  S
In737      O1064   2.261       .  S
In737       O742   2.262       .  S
In737       O744   2.257       .  S
In737      O1061   2.260       .  S
In737       O746   2.233       .  S
In737       O749   2.242       .  S
C738        O744   1.265       .  A
C738        O746   1.260       .  A
C738        C793   1.478       .  S
O739       C1063   1.258       .  A
O740      In1053   2.253   1_554  S
O740        C747   1.259       .  A
C741       O1064   1.258       .  A
C741        O742   1.258       .  A
C741        C862   1.481       .  S
C743        O745   1.260       .  A
C743       O1065   1.257   1_554  A
C743        C769   1.464       .  S
O745      In1053   2.260   1_554  S
C747       O1055   1.258   1_554  A
C747        C786   1.464       .  S
O748      In1053   2.261   1_554  S
O748       C1057   1.258   1_554  A
O749       C1059   1.257       .  A
In750       O752   2.243       .  S
In750       O753   2.268       .  S
In750       O761   2.251       .  S
In750       O755   2.245       .  S
In750       O757   2.262       .  S
In750       O758   2.249       .  S
In750       O759   2.233       .  S
In750       O762   2.250       .  S
C751        O757   1.265       .  A
C751        O759   1.261       .  A
C751        C802   1.480       .  S
O752        C760   1.256       .  A
O753        C760   1.259       .  A
C754        O761   1.259       .  A
C754        O755   1.259       .  A
C754        C842   1.474       .  S
C756        O758   1.260       .  A
C756        O762   1.258       .  A
C756        C764   1.462       .  S
C760        C777   1.464       .  S
In763       O770   2.249       .  S
In763       O771   2.242       .  S
In763       O772   2.242       .  S
In763       O775   2.252       .  S
C764        O770   1.262       .  A
C764        O772   1.258       .  A
O765        C773   1.260       .  A
O766        C773   1.261       .  A
C767        O774   1.259       .  A
C767        O768   1.262       .  A
C769        O771   1.260       .  A
C769        O775   1.259       .  A
In776       O778   2.247       .  S
In776       O779   2.247       .  S
In776       O787   2.255       .  S
In776       O781   2.243       .  S
In776       O783   2.236       .  S
In776       O784   2.240       .  S
In776       O785   2.259       .  S
In776       O788   2.255       .  S
C777        O783   1.260       .  A
C777        O785   1.261       .  A
O778        C786   1.259       .  A
O779        C786   1.260       .  A
C780        O787   1.259       .  A
C780        O781   1.260       .  A
C782        O784   1.259       .  A
C782        O788   1.260       .  A
C789        C790   1.406       .  A
C789        C794   1.398       .  A
C789        H799   1.083       .  S
C790        C795   1.489       .  S
C790        C791   1.408       .  A
C791        C792   1.399       .  A
C791        H796   1.082       .  S
C792        C793   1.402       .  A
C792        H797   1.084       .  S
C793        C794   1.406       .  A
C794        H798   1.082       .  S
C795        C800   1.408       .  A
C795        C804   1.405       .  A
C800        C801   1.401       .  A
C800        H805   1.081       .  S
C801        C802   1.404       .  A
C801        H806   1.084       .  S
C802        C803   1.405       .  A
C803        C804   1.397       .  A
C803        H807   1.082       .  S
C804        H808   1.083       .  S
C809        C810   1.409       .  A
C809        C814   1.398       .  A
C809        H819   1.082       .  S
C810        C815   1.484       .  S
C810        C811   1.404       .  A
C811        C812   1.393       .  A
C811        H816   1.083       .  S
C812        C813   1.404       .  A
C812        H817   1.083       .  S
C813        C814   1.402       .  A
C814        H818   1.083       .  S
C815        C820   1.404       .  A
C815        C824   1.409       .  A
C820        C821   1.394       .  A
C820        H825   1.083       .  S
C821        C822   1.403       .  A
C821        H826   1.082       .  S
C822        C823   1.402       .  A
C823        C824   1.398       .  A
C823        H827   1.084       .  S
C824        H828   1.081       .  S
C829        C830   1.406       .  A
C829        C834   1.397       .  A
C829        H839   1.083       .  S
C830        C835   1.484       .  S
C830        C831   1.406       .  A
C831        C832   1.396       .  A
C831        H836   1.083       .  S
C832        C833   1.403       .  A
C832        H837   1.083       .  S
C833        C834   1.404       .  A
C834        H838   1.084       .  S
C835        C840   1.405       .  A
C835        C844   1.406       .  A
C840        C841   1.397       .  A
C840        H845   1.083       .  S
C841        C842   1.404       .  A
C841        H846   1.083       .  S
C842        C843   1.403       .  A
C843        C844   1.397       .  A
C843        H847   1.083       .  S
C844        H848   1.082       .  S
C849       C1166   1.409       .  A
C849        C854   1.402       .  A
C849        H859   1.082       .  S
C850        C855   1.493   1_455  S
C850       C1165   1.409       .  A
C850        C851   1.408       .  A
C851        C852   1.397       .  A
C851        H856   1.083       .  S
C852        C853   1.403       .  A
C852        H857   1.084       .  S
C853       C1170   1.406       .  A
C854       C1169   1.405       .  A
C854        H858   1.083       .  S
C855       C1176   1.408       .  A
C855        C864   1.408       .  A
C860       C1171   1.408   1_554  A
C860        C861   1.398       .  A
C860        H865   1.083       .  S
C861       C1178   1.403   1_554  A
C861        H866   1.083       .  S
C862       C1177   1.403       .  A
C862        C863   1.405       .  A
C863        C864   1.401       .  A
C863        H867   1.083       .  S
C864        H868   1.083       .  S
C869        C870   1.409       .  A
C869        C874   1.397       .  A
C869        H879   1.081       .  S
C870        C875   1.488       .  S
C870        C871   1.406       .  A
C871        C872   1.395       .  A
C871        H876   1.083       .  S
C872        C873   1.404       .  A
C872        H877   1.082       .  S
C873        C874   1.401       .  A
C874        H878   1.084       .  S
C875        C880   1.406       .  A
C875        C884   1.409       .  A
C880        C881   1.395       .  A
C880        H885   1.083       .  S
C881        C882   1.404       .  A
C881        H886   1.082       .  S
C882        C883   1.402       .  A
C883        C884   1.398       .  A
C883        H887   1.084       .  S
C884        H888   1.081       .  S
C889        C890   1.407       .  A
C889        C894   1.396       .  A
C889        H899   1.083       .  S
C890        C895   1.488       .  S
C890       C1207   1.407       .  A
C891       C1206   1.407       .  A
C891        C892   1.399       .  A
C891        H896   1.083       .  S
C892       C1209   1.405       .  A
C892        H897   1.083       .  S
C893       C1208   1.405       .  A
C893        C894   1.402       .  A
C894        H898   1.084       .  S
C895        C900   1.407       .  A
C895       C1220   1.407       .  A
C900        C901   1.396       .  A
C900        H905   1.083       .  S
C901        C902   1.402       .  A
C901        H906   1.083       .  S
C902       C1219   1.404       .  A
C903       C1218   1.404       .  A
C903        C904   1.399       .  A
C903        H907   1.083       .  S
C904       C1211   1.407       .  A
C904        H908   1.082       .  S
C909        C910   1.407       .  A
C909        C914   1.396       .  A
C909        H919   1.082       .  S
C910        C915   1.486   1_655  S
C910        C911   1.407       .  A
C911        C912   1.398       .  A
C911        H916   1.083       .  S
C912        C913   1.404       .  A
C912        H917   1.083       .  S
C913        C914   1.403       .  A
C914        H918   1.084       .  S
C915        C920   1.407       .  A
C915        C924   1.407       .  A
C920        C921   1.396       .  A
C920        H925   1.083       .  S
C921        C922   1.403       .  A
C921        H926   1.083       .  S
C922        C923   1.403       .  A
C923        C924   1.397       .  A
C923        H927   1.083       .  S
C924        H928   1.082       .  S
C929        C930   1.408       .  A
C929        C934   1.399       .  A
C929        H939   1.081       .  S
C930        C935   1.483       .  S
C930        C931   1.404       .  A
C931        C932   1.394       .  A
C931        H936   1.083       .  S
C932        C933   1.404       .  A
C932        H937   1.082       .  S
C933        C934   1.403       .  A
C934        H938   1.084       .  S
C935        C940   1.403       .  A
C935        C944   1.409       .  A
C940        C941   1.393       .  A
C940        H945   1.084       .  S
C941        C942   1.404       .  A
C941        H946   1.082       .  S
C942        C943   1.402       .  A
C943        C944   1.398       .  A
C943        H947   1.084       .  S
C944        H948   1.081       .  S
In949       O951   2.249       .  S
In949       O952   2.263       .  S
In949       O960   2.246       .  S
In949       O954   2.251       .  S
In949       O956   2.260       .  S
In949       O957   2.249       .  S
In949       O958   2.223       .  S
In949       O961   2.243       .  S
C950        O956   1.263       .  A
C950        O958   1.259       .  A
C950       C1249   1.473       .  S
O951        C959   1.257       .  A
O952        C959   1.259       .  A
C953        O960   1.258       .  A
C953        O954   1.258       .  A
C953       C1238   1.474       .  S
C955        O957   1.261       .  A
C955        O961   1.259       .  A
C955       C1020   1.462       .  S
C959       C1002   1.465       .  S
In962       O964   2.245       .  S
In962       O967   2.249       .  S
In962       O969   2.253       .  S
In962       O971   2.215       .  S
In962       O974   2.241       .  S
C963        O969   1.265       .  A
C963        O971   1.260       .  A
C963       C1258   1.471       .  S
O965        C972   1.260       .  A
C966        O967   1.260       .  A
C966       C1209   1.475       .  S
C968        O970   1.261       .  A
C968       C1015   1.461       .  S
C972       C1011   1.462       .  S
In975       O977   2.243       .  S
In975       O980   2.253       .  S
In975       O982   2.255       .  S
In975       O984   2.230       .  S
In975       O987   2.251       .  S
C976        O982   1.263       .  A
C976        O984   1.260       .  A
C976       C1198   1.474       .  S
O978        C985   1.260       .  A
C979        O980   1.260       .  A
C979       C1169   1.480       .  S
C981        O983   1.260       .  A
C981       C1018   1.464       .  S
C985       C1007   1.463       .  S
In988       O990   2.240       .  S
In988       O991   2.263       .  S
In988       O999   2.250       .  S
In988       O993   2.249       .  S
In988       O995   2.251       .  S
In988       O996   2.248       .  S
In988       O997   2.225       .  S
In988      O1000   2.238       .  S
C989        O995   1.263       .  A
C989        O997   1.259       .  A
C989       C1189   1.472       .  S
O990        C998   1.256       .  A
O991        C998   1.260       .  A
C992        O999   1.258       .  A
C992        O993   1.259       .  A
C992       C1149   1.474       .  S
C994        O996   1.262       .  A
C994       O1000   1.259       .  A
C994       C1024   1.461       .  S
C998       C1005   1.462       .  S
In1001     O1012   2.254       .  S
In1001     O1006   2.238       .  S
In1001     O1009   2.238       .  S
In1001     O1013   2.253       .  S
C1002      O1008   1.260       .  A
C1002      O1010   1.260       .  A
O1003      C1011   1.259       .  A
O1004      C1011   1.260       .  A
C1005      O1012   1.260       .  A
C1005      O1006   1.260       .  A
C1007      O1009   1.260       .  A
C1007      O1013   1.261       .  A
In1014     O1016   2.245       .  S
In1014     O1017   2.240       .  S
In1014     O1025   2.245       .  S
In1014     O1019   2.246       .  S
In1014     O1021   2.243       .  S
In1014     O1022   2.245       .  S
In1014     O1023   2.241       .  S
In1014     O1026   2.246       .  S
C1015      O1021   1.262       .  A
C1015      O1023   1.259       .  A
O1016      C1024   1.259       .  A
O1017      C1024   1.261       .  A
C1018      O1025   1.260       .  A
C1018      O1019   1.262       .  A
C1020      O1022   1.261       .  A
C1020      O1026   1.259       .  A
In1027     O1029   2.245       .  S
In1027     O1030   2.261       .  S
In1027     O1038   2.248       .  S
In1027     O1032   2.256       .  S
In1027     O1034   2.260       .  S
In1027     O1035   2.248       .  S
In1027     O1036   2.213       .  S
In1027     O1039   2.251       .  S
C1028      O1034   1.264       .  A
C1028      O1036   1.258       .  A
C1028      C1129   1.471       .  S
O1029      C1037   1.256       .  A
O1030      C1037   1.259       .  A
C1031      O1038   1.258       .  A
C1031      O1032   1.259       .  A
C1031      C1229   1.475       .  S
C1033      O1035   1.262       .  A
C1033      O1039   1.260       .  A
C1033      C1083   1.467       .  S
C1037      C1096   1.463       .  S
In1040     O1042   2.245       .  S
In1040     O1045   2.247       .  S
In1040     O1047   2.255       .  S
In1040     O1049   2.224       .  S
In1040     O1052   2.251       .  S
C1041      O1047   1.264       .  A
C1041      O1049   1.260       .  A
C1041      C1138   1.473       .  S
O1043      C1050   1.259       .  A
C1044      O1045   1.260       .  A
C1044      C1218   1.475       .  S
C1046      O1048   1.259       .  A
C1046      C1089   1.462       .  S
C1050      C1098   1.463       .  S
In1053     O1055   2.253       .  S
In1053     O1058   2.262       .  S
In1053     O1060   2.257       .  S
In1053     O1062   2.233       .  S
In1053     O1065   2.242       .  S
C1054      O1060   1.265       .  A
C1054      O1062   1.260       .  A
C1054      C1109   1.478       .  S
O1056      C1063   1.259       .  A
C1057      O1058   1.258       .  A
C1057      C1178   1.481       .  S
C1059      O1061   1.260       .  A
C1059      C1085   1.464       .  S
C1063      C1102   1.464       .  S
In1066     O1068   2.243       .  S
In1066     O1069   2.268       .  S
In1066     O1077   2.251       .  S
In1066     O1071   2.245       .  S
In1066     O1073   2.262       .  S
In1066     O1074   2.249       .  S
In1066     O1075   2.233       .  S
In1066     O1078   2.250       .  S
C1067      O1073   1.265       .  A
C1067      O1075   1.261       .  A
C1067      C1118   1.480       .  S
O1068      C1076   1.256       .  A
O1069      C1076   1.259       .  A
C1070      O1077   1.259       .  A
C1070      O1071   1.259       .  A
C1070      C1158   1.474       .  S
C1072      O1074   1.260       .  A
C1072      O1078   1.258       .  A
C1072      C1080   1.462       .  S
C1076      C1093   1.464       .  S
In1079     O1086   2.249       .  S
In1079     O1087   2.242       .  S
In1079     O1088   2.242       .  S
In1079     O1091   2.252       .  S
C1080      O1086   1.262       .  A
C1080      O1088   1.258       .  A
O1081      C1089   1.260       .  A
O1082      C1089   1.261       .  A
C1083      O1090   1.259       .  A
C1083      O1084   1.262       .  A
C1085      O1087   1.260       .  A
C1085      O1091   1.259       .  A
In1092     O1094   2.247       .  S
In1092     O1095   2.247       .  S
In1092     O1103   2.255       .  S
In1092     O1097   2.243       .  S
In1092     O1099   2.236       .  S
In1092     O1100   2.240       .  S
In1092     O1101   2.259       .  S
In1092     O1104   2.255       .  S
C1093      O1099   1.260       .  A
C1093      O1101   1.261       .  A
O1094      C1102   1.259       .  A
O1095      C1102   1.260       .  A
C1096      O1103   1.259       .  A
C1096      O1097   1.260       .  A
C1098      O1100   1.259       .  A
C1098      O1104   1.260       .  A
C1105      C1106   1.406       .  A
C1105      C1110   1.398       .  A
C1105      H1115   1.083       .  S
C1106      C1111   1.489       .  S
C1106      C1107   1.408       .  A
C1107      C1108   1.399       .  A
C1107      H1112   1.082       .  S
C1108      C1109   1.402       .  A
C1108      H1113   1.084       .  S
C1109      C1110   1.406       .  A
C1110      H1114   1.082       .  S
C1111      C1116   1.408       .  A
C1111      C1120   1.405       .  A
C1116      C1117   1.401       .  A
C1116      H1121   1.081       .  S
C1117      C1118   1.404       .  A
C1117      H1122   1.084       .  S
C1118      C1119   1.405       .  A
C1119      C1120   1.397       .  A
C1119      H1123   1.082       .  S
C1120      H1124   1.083       .  S
C1125      C1126   1.409       .  A
C1125      C1130   1.398       .  A
C1125      H1135   1.082       .  S
C1126      C1131   1.484       .  S
C1126      C1127   1.404       .  A
C1127      C1128   1.393       .  A
C1127      H1132   1.083       .  S
C1128      C1129   1.404       .  A
C1128      H1133   1.082       .  S
C1129      C1130   1.402       .  A
C1130      H1134   1.083       .  S
C1131      C1136   1.404       .  A
C1131      C1140   1.409       .  A
C1136      C1137   1.394       .  A
C1136      H1141   1.083       .  S
C1137      C1138   1.403       .  A
C1137      H1142   1.082       .  S
C1138      C1139   1.402       .  A
C1139      C1140   1.398       .  A
C1139      H1143   1.084       .  S
C1140      H1144   1.081       .  S
C1145      C1146   1.406       .  A
C1145      C1150   1.397       .  A
C1145      H1155   1.082       .  S
C1146      C1151   1.484       .  S
C1146      C1147   1.406       .  A
C1147      C1148   1.396       .  A
C1147      H1152   1.083       .  S
C1148      C1149   1.403       .  A
C1148      H1153   1.083       .  S
C1149      C1150   1.404       .  A
C1150      H1154   1.084       .  S
C1151      C1156   1.405       .  A
C1151      C1160   1.406       .  A
C1156      C1157   1.397       .  A
C1156      H1161   1.083       .  S
C1157      C1158   1.404       .  A
C1157      H1162   1.083       .  S
C1158      C1159   1.403       .  A
C1159      C1160   1.397       .  A
C1159      H1163   1.083       .  S
C1160      H1164   1.082       .  S
C1165      C1170   1.402       .  A
C1165      H1175   1.082       .  S
C1166      C1171   1.493   1_455  S
C1166      C1167   1.408       .  A
C1167      C1168   1.397       .  A
C1167      H1172   1.083       .  S
C1168      C1169   1.403       .  A
C1168      H1173   1.083       .  S
C1170      H1174   1.083       .  S
C1171      C1180   1.408       .  A
C1176      C1177   1.398       .  A
C1176      H1181   1.082       .  S
C1177      H1182   1.083       .  S
C1178      C1179   1.405       .  A
C1179      C1180   1.401       .  A
C1179      H1183   1.083       .  S
C1180      H1184   1.083       .  S
C1185      C1186   1.409       .  A
C1185      C1190   1.397       .  A
C1185      H1195   1.081       .  S
C1186      C1191   1.488       .  S
C1186      C1187   1.406       .  A
C1187      C1188   1.395       .  A
C1187      H1192   1.083       .  S
C1188      C1189   1.404       .  A
C1188      H1193   1.082       .  S
C1189      C1190   1.401       .  A
C1190      H1194   1.084       .  S
C1191      C1196   1.406       .  A
C1191      C1200   1.409       .  A
C1196      C1197   1.395       .  A
C1196      H1201   1.083       .  S
C1197      C1198   1.404       .  A
C1197      H1202   1.082       .  S
C1198      C1199   1.402       .  A
C1199      C1200   1.398       .  A
C1199      H1203   1.084       .  S
C1200      H1204   1.081       .  S
C1205      C1206   1.407       .  A
C1205      C1210   1.396       .  A
C1205      H1215   1.083       .  S
C1206      C1211   1.488       .  S
C1207      C1208   1.399       .  A
C1207      H1212   1.083       .  S
C1208      H1213   1.083       .  S
C1209      C1210   1.402       .  A
C1210      H1214   1.084       .  S
C1211      C1216   1.407   1_556  A
C1216      C1217   1.395       .  A
C1216      H1221   1.083       .  S
C1217      C1218   1.402   1_554  A
C1217      H1222   1.083       .  S
C1219      C1220   1.399       .  A
C1219      H1223   1.083       .  S
C1220      H1224   1.082       .  S
C1225      C1226   1.407       .  A
C1225      C1230   1.396       .  A
C1225      H1235   1.082       .  S
C1226      C1231   1.486   1_655  S
C1226      C1227   1.407       .  A
C1227      C1228   1.398       .  A
C1227      H1232   1.083       .  S
C1228      C1229   1.404       .  A
C1228      H1233   1.083       .  S
C1229      C1230   1.403       .  A
C1230      H1234   1.084       .  S
C1231      C1236   1.407       .  A
C1231      C1240   1.407       .  A
C1236      C1237   1.396       .  A
C1236      H1241   1.083       .  S
C1237      C1238   1.403       .  A
C1237      H1242   1.083       .  S
C1238      C1239   1.403       .  A
C1239      C1240   1.397       .  A
C1239      H1243   1.083       .  S
C1240      H1244   1.082       .  S
C1245      C1246   1.408       .  A
C1245      C1250   1.399       .  A
C1245      H1255   1.081       .  S
C1246      C1251   1.483       .  S
C1246      C1247   1.404       .  A
C1247      C1248   1.394       .  A
C1247      H1252   1.084       .  S
C1248      C1249   1.404       .  A
C1248      H1253   1.082       .  S
C1249      C1250   1.403       .  A
C1250      H1254   1.084       .  S
C1251      C1256   1.403       .  A
C1251      C1260   1.409       .  A
C1256      C1257   1.393       .  A
C1256      H1261   1.084       .  S
C1257      C1258   1.404       .  A
C1257      H1262   1.082       .  S
C1258      C1259   1.402       .  A
C1259      C1260   1.398       .  A
C1259      H1263   1.084       .  S
C1260      H1264   1.081       .  S
