geometry optimzed in LAMMPS
_audit_creation_date              2020-11-30 
_audit_creation_method            'lammps2cif' 
_symmetry_space_group_name_H-M    'P1' 
_symmetry_Int_Tables_number       1 
_symmetry_cell_setting            triclinic 
loop_ 
_symmetry_equiv_pos_as_xyz 
  x,y,z 
_cell_length_a                    34.44657719 
_cell_length_b                    34.48552396326631 
_cell_length_c                    40.60263105208534 
_cell_angle_alpha                 89.54131830849481 
_cell_angle_beta                  89.55834110268148 
_cell_angle_gamma                 90.43974999597984 
loop_ 
_atom_site_label 
_atom_site_type_symbol 
_atom_site_fract_x 
_atom_site_fract_y 
_atom_site_fract_z 
_atom_site_charge 
In1        In  0.60381974  0.10744860  0.15743352     1.36900
C2          C  0.59424616  0.04121722  0.19077312     0.78100
O3          O  0.54478780  0.09733433  0.13686497    -0.60300
O4          O  0.56091546  0.15557177  0.14640329    -0.51200
C5          C  0.63497410  0.14571474  0.20818763     0.70800
O6          O  0.65549381  0.13030834  0.18606956    -0.46100
C7          C  0.64251719  0.09329230  0.10112516     0.75500
O8          O  0.62688168  0.05330569  0.18074267    -0.57900
O9          O  0.62444580  0.06793674  0.11758505    -0.48000
O10         O  0.56696296  0.06435167  0.18524989    -0.54400
C11         C  0.53443021  0.13223491  0.13772590     0.85700
O12         O  0.59921269  0.14520542  0.20209406    -0.56300
O13         O  0.64069060  0.12706096  0.11302689    -0.59600
In14       In  0.59866690  0.10383749  0.39100347     1.36900
C15         C  0.57563995  0.03206724  0.37858304     0.78100
O16         O  0.64037541  0.10438977  0.34907739    -0.60300
O17         O  0.61937282  0.15872178  0.36419089    -0.51200
C18         C  0.52791751  0.13489625  0.39108474     0.70800
O19         O  0.54024946  0.11230716  0.36927800    -0.46100
C20         C  0.64245379  0.09030309  0.44418363     0.75500
O21         O  0.57275467  0.04699397  0.40674725    -0.57900
O22         O  0.65088142  0.07798143  0.41598625    -0.48000
O23         O  0.58895796  0.05465963  0.35675099    -0.54400
C24         C  0.63833438  0.14004022  0.34287762     0.85700
O25         O  0.55257248  0.14315986  0.41292688    -0.56300
O26         O  0.61341650  0.11238847  0.44489512    -0.59600
In27       In  0.59681639  0.81535825  0.15424047     1.36900
C28         C  0.58916415  0.88039929  0.18791222     0.78100
O29         O  0.58165781  0.77863837  0.19821775    -0.60300
O30         O  0.64089308  0.78280241  0.18527595    -0.51200
C31         C  0.52988484  0.79796492  0.12526242     0.70800
O32         O  0.54077799  0.83202444  0.13163765    -0.46100
C33         C  0.64339624  0.83095560  0.10264362     0.75500
O34         O  0.56059434  0.85930837  0.18038554    -0.57900
O35         O  0.63139452  0.79696350  0.10908403    -0.48000
O36         O  0.62156381  0.86688933  0.17929885    -0.54400
C37         C  0.61600849  0.77135866  0.20621244     0.85700
O38         O  0.55464255  0.77229881  0.13212067    -0.56300
O39         O  0.63230379  0.85612477  0.12270812    -0.59600
In40       In  0.59523969  0.79756685  0.40063411     1.36900
C41         C  0.57356049  0.86752741  0.38030074     0.78100
O42         O  0.54132410  0.80214020  0.42945312    -0.60300
O43         O  0.55588175  0.74562894  0.41399670    -0.51200
C44         C  0.61394317  0.76342627  0.34375478     0.70800
O45         O  0.63801541  0.76651642  0.36693903    -0.46100
C46         C  0.64641242  0.81435531  0.44808738     0.75500
O47         O  0.60423920  0.85143362  0.37046507    -0.57900
O48         O  0.62859161  0.78221305  0.44722601    -0.48000
O49         O  0.55319636  0.84656429  0.39916684    -0.54400
C50         C  0.53126967  0.76706541  0.42820760     0.85700
O51         O  0.58025647  0.77443788  0.35105471    -0.56300
O52         O  0.64084232  0.83569952  0.42346875    -0.59600
In53       In  0.29462018  0.12071265  0.14736176     1.36900
C54         C  0.31158060  0.05077342  0.16876313     0.78100
O55         O  0.28846114  0.17564824  0.17852804    -0.60300
O56         O  0.24640368  0.13161541  0.18319608    -0.51200
C57         C  0.36842402  0.14173443  0.13626652     0.70800
O58         O  0.35567397  0.12965875  0.16366761    -0.46100
C59         C  0.24781791  0.10274092  0.09703147     0.75500
O60         O  0.32006462  0.06261989  0.14019490    -0.57900
O61         O  0.26894292  0.13299477  0.09654662    -0.48000
O62         O  0.29609284  0.07556387  0.18712658    -0.54400
C63         C  0.25983474  0.16249859  0.19484328     0.85700
O64         O  0.34270100  0.14576638  0.11440919    -0.56300
O65         O  0.24874183  0.08406644  0.12364256    -0.59600
In66       In  0.28997598  0.11626038  0.38064376     1.36900
C67         C  0.30944267  0.04239331  0.37430804     0.78100
O68         O  0.35093692  0.11948608  0.36253976    -0.60300
O69         O  0.33636221  0.15419634  0.40369607    -0.51200
C70         C  0.25780123  0.15451038  0.32992343     0.70800
O71         O  0.25392696  0.11868007  0.33516622    -0.46100
C72         C  0.24180889  0.10462636  0.43177309     0.75500
O73         O  0.29883722  0.06306697  0.35032636    -0.57900
O74         O  0.27270844  0.12425006  0.43414653    -0.48000
O75         O  0.31091473  0.06007894  0.40125275    -0.54400
C76         C  0.36266900  0.14236579  0.38438418     0.85700
O77         O  0.27534929  0.17211581  0.35267226    -0.56300
O78         O  0.23311536  0.09568168  0.40274642    -0.59600
In79       In  0.29943810  0.81548126  0.14984819     1.36900
C80         C  0.31050802  0.88759017  0.16949130     0.78100
O81         O  0.35744956  0.83009565  0.12988245    -0.60300
O82         O  0.34169411  0.77059398  0.12998365    -0.51200
C83         C  0.29006853  0.77397428  0.20539462     0.70800
O84         O  0.32067562  0.79187370  0.19733835    -0.46100
C85         C  0.24609395  0.82450770  0.10330705     0.75500
O86         O  0.29124573  0.86335440  0.18647036    -0.57900
O87         O  0.24330725  0.84026116  0.13101900    -0.48000
O88         O  0.32331251  0.87460678  0.14272175    -0.54400
C89         C  0.36747737  0.79600290  0.12350395     0.85700
O90         O  0.26389676  0.77506775  0.18372332    -0.56300
O91         O  0.27326786  0.80041561  0.10084456    -0.59600
In92       In  0.30954942  0.80342110  0.39880106     1.36900
C93         C  0.32032559  0.87671468  0.38048837     0.78100
O94         O  0.32475515  0.79039340  0.34658347    -0.60300
O95         O  0.27771477  0.75861704  0.36751601    -0.51200
C96         C  0.37196637  0.77255098  0.42664935     0.70800
O97         O  0.34344299  0.75148459  0.41817916    -0.46100
C98         C  0.25564259  0.81789874  0.44512623     0.75500
O99         O  0.34788395  0.85541256  0.38933956    -0.57900
O100        O  0.24767941  0.81556096  0.41503518    -0.48000
O101        O  0.28788866  0.85980993  0.37946635    -0.54400
C102        C  0.29779088  0.76628236  0.34206972     0.85700
O103        O  0.36720545  0.80831614  0.42186232    -0.56300
O104        O  0.29003741  0.80896095  0.45190970    -0.59600
In105      In  0.18175687  0.85947885  0.02280820     1.36900
C106        C  0.11575223  0.81790515  0.02033186     0.78100
O107        O  0.19363271  0.84195968  0.46349690    -0.60300
O108        O  0.21242961  0.87068354  0.97474439    -0.51200
C109        C  0.18012973  0.93864851  0.02253714     0.70800
O110        O  0.21021533  0.91897396  0.02753621    -0.46100
C111        C  0.22196272  0.83586387  0.07525318     0.75500
O112        O  0.13198382  0.82642268  0.04703611    -0.57900
O113        O  0.19278624  0.85759302  0.07776735    -0.48000
O114        O  0.13034441  0.83457791  0.99539752    -0.54400
C115        C  0.22794514  0.83194225  0.47007120     0.85700
O116        O  0.15008875  0.91801178  0.01831980    -0.56300
O117        O  0.23043814  0.82648013  0.04623902    -0.59600
In118      In  0.04730605  0.71947023  0.01302624     1.36900
C119        C  0.08627155  0.78680846  0.01792637     0.78100
O120        O  0.09317930  0.69499871  0.04716204    -0.60300
O121        O  0.03563671  0.67373993  0.05196644    -0.51200
C122        C  0.96815265  0.72403249  0.01536823     0.70800
O123        O  0.99005664  0.74923799  0.02812714    -0.46100
C124        C  0.07430497  0.68004608  0.45723615     0.75500
O125        O  0.07359124  0.76831934  0.04271118    -0.57900
O126        O  0.08214647  0.66992920  0.48623939    -0.48000
O127        O  0.07544374  0.77325790  0.99072943    -0.54400
C128        C  0.07024809  0.67189624  0.06169372     0.85700
O129        O  0.98655326  0.69761639  0.00094112    -0.56300
O130        O  0.05116142  0.70814080  0.45531991    -0.59600
In131      In  0.05067137  0.19943709  0.00677099     1.36900
C132        C  0.08927872  0.13231373  0.01027341     0.78100
O133        O  0.05947404  0.19953815  0.45768445    -0.60300
O134        O  0.08792825  0.24583850  0.98222891    -0.51200
C135        C  0.97155397  0.19482587  0.00965266     0.70800
O136        O  0.99314642  0.16642014  0.01634705    -0.46100
C137        C  0.07420514  0.24074905  0.05873604     0.75500
O138        O  0.07507500  0.14866530  0.03518569    -0.57900
O139        O  0.03924588  0.23831644  0.05001418    -0.48000
O140        O  0.07996136  0.14769927  0.98320289    -0.54400
C141        C  0.07060042  0.23439414  0.45921056     0.85700
O142        O  0.99019903  0.22466127  0.00054520    -0.56300
O143        O  0.09739600  0.22189678  0.04107522    -0.59600
In144      In  0.18486885  0.06102462  0.01713715     1.36900
C145        C  0.11881872  0.10170176  0.01290947     0.78100
O146        O  0.23066205  0.10029818  0.03974937    -0.60300
O147        O  0.19934624  0.06252845  0.07155253    -0.51200
C148        C  0.18094294  0.98200178  0.02113440     0.70800
O149        O  0.21193909  0.00140365  0.02394280    -0.46100
C150        C  0.21961698  0.09006188  0.46053950     0.75500
O151        O  0.13350865  0.09183707  0.03998152    -0.57900
O152        O  0.23093564  0.09421394  0.48970412    -0.48000
O153        O  0.13503395  0.08691588  0.98820101    -0.54400
C154        C  0.22506763  0.08863425  0.06880750     0.85700
O155        O  0.15140803  0.00285626  0.01655304    -0.56300
O156        O  0.18900682  0.07013017  0.45796112    -0.59600
In157      In  0.84554884  0.72011520  0.02305934     1.36900
C158        C  0.80511877  0.78706724  0.02313850     0.78100
O159        O  0.82393988  0.70985126  0.47054308    -0.60300
O160        O  0.81824975  0.66028561  0.50126078    -0.51200
C161        C  0.92481332  0.72407154  0.01762201     0.70800
O162        O  0.90502186  0.74995098  0.03158352    -0.46100
C163        C  0.82408189  0.67998015  0.07772050     0.75500
O164        O  0.81843643  0.77197472  0.99736764    -0.57900
O165        O  0.85834671  0.69160242  0.07211419    -0.48000
O166        O  0.81549496  0.77015672  0.04921668    -0.54400
C167        C  0.81341969  0.67482647  0.47308045     0.85700
O168        O  0.90428564  0.69712070  0.00613563    -0.56300
O169        O  0.80029421  0.68936153  0.05567197    -0.59600
In170      In  0.71016618  0.86063027  0.02045026     1.36900
C171        C  0.77583000  0.81829093  0.02245936     0.78100
O172        O  0.67370289  0.81825139  0.05051583    -0.60300
O173        O  0.68358162  0.87404329  0.07019953    -0.51200
C174        C  0.71132466  0.93993537  0.01736817     0.70800
O175        O  0.74025704  0.92031504  0.02654358    -0.46100
C176        C  0.66929035  0.82769472  0.47642149     0.75500
O177        O  0.76226574  0.83190661  0.99611814    -0.57900
O178        O  0.67031639  0.80927594  0.50326009    -0.48000
O179        O  0.75888592  0.83024125  0.04793418    -0.54400
C180        C  0.66769781  0.84118725  0.07387505     0.85700
O181        O  0.68265059  0.91919156  0.00945350    -0.56300
O182        O  0.68732620  0.85975480  0.47664738    -0.59600
In183      In  0.84902807  0.19516777  0.01795251     1.36900
C184        C  0.80325885  0.13123560  0.01781458     0.78100
O185        O  0.81352590  0.23928156  0.04566293    -0.60300
O186        O  0.85428596  0.20665377  0.07283546    -0.51200
C187        C  0.92830666  0.19415966  0.01273707     0.70800
O188        O  0.90837299  0.16450091  0.02025599    -0.46100
C189        C  0.81131839  0.23563596  0.46767964     0.75500
O190        O  0.81818090  0.14545051  0.99203124    -0.57900
O191        O  0.81107033  0.24849386  0.49664631    -0.48000
O192        O  0.81453649  0.14722043  0.04376102    -0.54400
C193        C  0.82826406  0.23229222  0.07333744     0.85700
O194        O  0.90800287  0.22390542  0.00835167    -0.56300
O195        O  0.82771598  0.20326059  0.46474461    -0.59600
In196      In  0.70438952  0.06250533  0.01672424     1.36900
C197        C  0.77174308  0.10205142  0.01749581     0.78100
O198        O  0.69435372  0.05837459  0.47275265    -0.60300
O199        O  0.65597259  0.09774906  0.99354636    -0.51200
C200        C  0.71004842  0.98333574  0.01645811     0.70800
O201        O  0.73698359  0.00527207  0.02640543    -0.46100
C202        C  0.66413685  0.08310380  0.07091050     0.75500
O203        O  0.75646781  0.09032444  0.99128263    -0.57900
O204        O  0.66550370  0.04882518  0.06038607    -0.48000
O205        O  0.75495950  0.09008543  0.04336762    -0.54400
C206        C  0.66392832  0.07852503  0.47384736     0.85700
O207        O  0.68100686  0.00172737  0.00615662    -0.56300
O208        O  0.68307194  0.10724229  0.05364843    -0.59600
In209      In  0.10474904  0.30726318  0.13921817     1.36900
C210        C  0.03853720  0.32192194  0.17026825     0.78100
O211        O  0.09625118  0.36423315  0.11534090    -0.60300
O212        O  0.15447287  0.34607592  0.12076457    -0.51200
C213        C  0.14207882  0.27931265  0.19149469     0.70800
O214        O  0.13953517  0.31502668  0.18531127    -0.46100
C215        C  0.08632647  0.26393859  0.08713350     0.75500
O216        O  0.05013546  0.28789050  0.16515026    -0.57900
O217        O  0.06195350  0.28174010  0.10429066    -0.48000
O218        O  0.06248550  0.34814194  0.16218109    -0.54400
C219        C  0.13159934  0.37255108  0.11163432     0.85700
O220        O  0.12985379  0.25787639  0.16874223    -0.56300
O221        O  0.12108839  0.26794670  0.09639957    -0.59600
In222      In  0.09117881  0.30300841  0.37678071     1.36900
C223        C  0.01705079  0.31677377  0.36476020     0.78100
O224        O  0.09350647  0.26672349  0.33216348    -0.60300
O225        O  0.14693443  0.28939947  0.34902146    -0.51200
C226        C  0.12023491  0.37464504  0.37708984     0.70800
O227        O  0.09238875  0.36417662  0.35926555    -0.46100
C228        C  0.08249835  0.25751618  0.43018959     0.75500
O229        O  0.03292635  0.32525084  0.39162708    -0.57900
O230        O  0.08379014  0.24409544  0.40148457    -0.48000
O231        O  0.03945257  0.30197272  0.34381813    -0.54400
C232        C  0.12924828  0.27128933  0.32662666     0.85700
O233        O  0.13449063  0.34790493  0.39461974    -0.56300
O234        O  0.08968904  0.29325484  0.43178711    -0.59600
In235      In  0.80323075  0.29760303  0.15666351     1.36900
C236        C  0.87528406  0.31717196  0.17374323     0.78100
O237        O  0.79344816  0.25486681  0.19786222    -0.60300
O238        O  0.74470899  0.28596187  0.18205464    -0.51200
C239        C  0.77754317  0.37021131  0.15042104     0.70800
O240        O  0.79814388  0.35870838  0.17399501    -0.46100
C241        C  0.81680857  0.25338228  0.10337629     0.75500
O242        O  0.86200278  0.32169222  0.14513457    -0.57900
O243        O  0.79364527  0.28149229  0.10312180    -0.48000
O244        O  0.85126688  0.30275790  0.19404243    -0.54400
C245        C  0.75844035  0.26295664  0.20316082     0.85700
O246        O  0.76866450  0.34412573  0.13006144    -0.56300
O247        O  0.83043646  0.24585478  0.13131852    -0.59600
In248      In  0.78073984  0.30190762  0.38618194     1.36900
C249        C  0.85244014  0.32023064  0.36904035     0.78100
O250        O  0.77808909  0.36397009  0.37176821    -0.60300
O251        O  0.73726438  0.34441036  0.40786445    -0.51200
C252        C  0.74550541  0.26504098  0.33676474     0.70800
O253        O  0.77994015  0.25935816  0.34538723    -0.46100
C254        C  0.79584118  0.25745931  0.43927482     0.75500
O255        O  0.82694992  0.31198043  0.34819729    -0.57900
O256        O  0.78142799  0.29081252  0.44154698    -0.48000
O257        O  0.84062798  0.32154558  0.39841556    -0.54400
C258        C  0.75095921  0.37265096  0.39121193     0.85700
O259        O  0.72672951  0.28641726  0.35633943    -0.56300
O260        O  0.79820599  0.24526554  0.41023696    -0.59600
In261      In  0.10056414  0.59626188  0.13699124     1.36900
C262        C  0.03343439  0.58405599  0.16841288     0.78100
O263        O  0.12931211  0.58510580  0.18553666    -0.60300
O264        O  0.13243865  0.64205850  0.16594841    -0.51200
C265        C  0.12979459  0.53288202  0.10858997     0.70800
O266        O  0.09434769  0.54122955  0.10928656    -0.46100
C267        C  0.08237047  0.64477556  0.08773960     0.75500
O268        O  0.05472058  0.55685945  0.15857543    -0.57900
O269        O  0.11656998  0.64251424  0.09865242    -0.48000
O270        O  0.04786596  0.61737645  0.16379822    -0.54400
C271        C  0.13922152  0.61987572  0.19007591     0.85700
O272        O  0.15146824  0.55876661  0.12061963    -0.56300
O273        O  0.05860489  0.62175195  0.10116927    -0.59600
In274      In  0.10009550  0.61295316  0.37637121     1.36900
C275        C  0.02602228  0.59616206  0.36738421     0.78100
O276        O  0.09997572  0.55280752  0.35748712    -0.60300
O277        O  0.13696082  0.56473576  0.39781368    -0.51200
C278        C  0.14039353  0.64151397  0.32530899     0.70800
O279        O  0.10572219  0.65020068  0.33144963    -0.46100
C280        C  0.08871537  0.65916072  0.42810461     0.75500
O281        O  0.04717014  0.61077382  0.34500119    -0.57900
O282        O  0.10936138  0.62915028  0.42987567    -0.48000
O283        O  0.04348629  0.58889388  0.39385423    -0.54400
C284        C  0.12407278  0.53979059  0.37785426     0.85700
O285        O  0.15670758  0.62324182  0.34837640    -0.56300
O286        O  0.07879969  0.66820322  0.39934730    -0.59600
In287      In  0.79991238  0.60956956  0.15974673     1.36900
C288        C  0.87058514  0.58985311  0.17936997     0.78100
O289        O  0.78658267  0.54985971  0.17891323    -0.60300
O290        O  0.77360254  0.56121210  0.12901326    -0.51200
C291        C  0.75856852  0.64379721  0.20762417     0.70800
O292        O  0.79280895  0.65317663  0.19982686    -0.46100
C293        C  0.81370049  0.65643880  0.10718863     0.75500
O294        O  0.84880645  0.61115656  0.19644031    -0.57900
O295        O  0.83859219  0.64779491  0.12831792    -0.48000
O296        O  0.85550548  0.57836103  0.15294706    -0.54400
C297        C  0.77470492  0.53636100  0.15205898     0.85700
O298        O  0.74362077  0.61954986  0.18828402    -0.56300
O299        O  0.78037666  0.64232626  0.11320166    -0.59600
In300      In  0.78761446  0.60694871  0.39242226     1.36900
C301        C  0.86060000  0.59189056  0.37680413     0.78100
O302        O  0.78753444  0.64783816  0.34988254    -0.60300
O303        O  0.73380472  0.62153519  0.36259323    -0.51200
C304        C  0.75645016  0.53611266  0.39591345     0.70800
O305        O  0.78600123  0.54481377  0.37897070    -0.46100
C306        C  0.79919845  0.65189786  0.44508886     0.75500
O307        O  0.84814634  0.59064349  0.40603082    -0.57900
O308        O  0.79659393  0.66547911  0.41634055    -0.48000
O309        O  0.83528160  0.59908023  0.35551038    -0.54400
C310        C  0.75267885  0.64224187  0.34208513     0.85700
O311        O  0.74182627  0.56406059  0.41164805    -0.56300
O312        O  0.79130501  0.61625344  0.44743266    -0.59600
C313        C  0.74066786  0.65616458  0.23960782    -0.04800
C314        C  0.75831147  0.68644326  0.25751106    -0.01900
C315        C  0.75730366  0.68568038  0.29225492     0.03100
C316        C  0.73807693  0.65497612  0.30915011    -0.04800
C317        C  0.71241408  0.63102975  0.29116404    -0.01900
C318        C  0.71342167  0.63195809  0.25626979     0.03100
C319        C  0.77921309  0.71719392  0.24024894     0.37700
C320        C  0.68751285  0.60319935  0.30815283     0.37700
C321        C  0.68800580  0.60657745  0.23784983     0.36100
C322        C  0.77827817  0.71501198  0.31052825     0.36100
N323        N  0.66730995  0.58663106  0.22323358    -0.38700
N324        N  0.79517447  0.73833868  0.32504225    -0.38700
N325        N  0.66753787  0.58099185  0.32166050    -0.38100
N326        N  0.79579956  0.74175926  0.22641264    -0.38100
C327        C  0.90208671  0.58754449  0.36858191    -0.04800
C328        C  0.92417449  0.55888738  0.38456357    -0.01900
C329        C  0.96492391  0.56000982  0.38234125     0.03100
C330        C  0.98371142  0.58971612  0.36384351    -0.04800
C331        C  0.96127160  0.61565261  0.34475198    -0.01900
C332        C  0.92051090  0.61468829  0.34732139     0.03100
C333        C  0.90489861  0.52817987  0.40323904     0.37700
C334        C  0.97973290  0.64521513  0.32420213     0.37700
C335        C  0.89781952  0.64369624  0.33006457     0.36100
C336        C  0.98740248  0.53070666  0.39940144     0.36100
N337        N  0.87961099  0.66682775  0.31649363    -0.38700
N338        N  0.00540913  0.50749190  0.41306748    -0.38700
N339        N  0.99425483  0.66886167  0.30777539    -0.38100
N340        N  0.88945571  0.50360520  0.41797663    -0.38100
C341        C  0.91162768  0.58100488  0.18758890    -0.04800
C342        C  0.92936088  0.54830152  0.17338799    -0.01900
C343        C  0.96999903  0.54711299  0.16965183     0.03100
C344        C  0.99318844  0.57811487  0.18129028    -0.04800
C345        C  0.97579534  0.60647490  0.20149386    -0.01900
C346        C  0.93498589  0.60793949  0.20469184     0.03100
C347        C  0.90558199  0.51627585  0.16189771     0.37700
C348        C  0.99979569  0.63475698  0.21827692     0.37700
C349        C  0.91739397  0.63815850  0.22430106     0.36100
C350        C  0.98713818  0.51554913  0.15136925     0.36100
N351        N  0.90345749  0.66213642  0.24016713    -0.38700
N352        N  0.00077903  0.49050834  0.13657759    -0.38700
N353        N  0.01905168  0.65722145  0.23165580    -0.38100
N354        N  0.88623507  0.49092537  0.15299063    -0.38100
C355        C  0.15334394  0.63366495  0.22266789    -0.04800
C356        C  0.17592833  0.60915827  0.24289190    -0.01900
C357        C  0.17822234  0.61590336  0.27714250     0.03100
C358        C  0.15689018  0.64648527  0.29138813    -0.04800
C359        C  0.14101866  0.67497235  0.27035707    -0.01900
C360        C  0.13856850  0.66835428  0.23615290     0.03100
C361        C  0.19508458  0.57575278  0.22885146     0.37700
C362        C  0.12495223  0.71003489  0.28426113     0.37700
C363        C  0.11676244  0.69512343  0.21583527     0.36100
C364        C  0.19984652  0.58940226  0.29783496     0.36100
N365        N  0.09902861  0.71627504  0.19970657    -0.38700
N366        N  0.21716184  0.56824725  0.31429685    -0.38700
N367        N  0.11224702  0.73812511  0.29524253    -0.38100
N368        N  0.21036930  0.54897161  0.21787544    -0.38100
C369        C  0.73852957  0.41365041  0.39438317    -0.04800
C370        C  0.73289618  0.43584875  0.36546721    -0.01900
C371        C  0.73492229  0.47662292  0.36653365     0.03100
C372        C  0.74156751  0.49560362  0.39666891    -0.04800
C373        C  0.74168035  0.47371073  0.42622381    -0.01900
C374        C  0.74054955  0.43266022  0.42507182     0.03100
C375        C  0.72672462  0.41662287  0.33425078     0.37700
C376        C  0.74650518  0.49319216  0.45745663     0.37700
C377        C  0.74529743  0.41016353  0.45507330     0.36100
C378        C  0.73237421  0.49900485  0.33620751     0.36100
N379        N  0.74922731  0.39220625  0.47900030    -0.38700
N380        N  0.73063992  0.51665861  0.31191883    -0.38700
N381        N  0.75027512  0.50876572  0.48238924    -0.38100
N382        N  0.72170133  0.40145359  0.30930414    -0.38100
C383        C  0.76657424  0.41170136  0.14705182    -0.04800
C384        C  0.75121608  0.43124289  0.17452635    -0.01900
C385        C  0.75135516  0.47214692  0.17538974     0.03100
C386        C  0.76569293  0.49406790  0.14816834    -0.04800
C387        C  0.77601318  0.47428934  0.11890638    -0.01900
C388        C  0.77690269  0.43321934  0.11852736     0.03100
C389        C  0.73524932  0.40907885  0.20204214     0.37700
C390        C  0.78827439  0.49587727  0.08979961     0.37700
C391        C  0.79110475  0.41327545  0.08955644     0.36100
C392        C  0.73741224  0.49146371  0.20477218     0.36100
N393        N  0.80246435  0.39736255  0.06646149    -0.38700
N394        N  0.72647828  0.50663515  0.22837169    -0.38700
N395        N  0.79789850  0.51301807  0.06646917    -0.38100
N396        N  0.72211295  0.39151430  0.22387880    -0.38100
C397        C  0.73810860  0.25054185  0.23434900    -0.04800
C398        C  0.71053802  0.27494996  0.24955114    -0.01900
C399        C  0.70764719  0.27598026  0.28439042     0.03100
C400        C  0.73170175  0.25188762  0.30374893    -0.04800
C401        C  0.75099171  0.22092788  0.28802110    -0.01900
C402        C  0.75386008  0.22011396  0.25333886     0.03100
C403        C  0.68671055  0.30029093  0.22968986     0.37700
C404        C  0.77044528  0.19159449  0.30747433     0.37700
C405        C  0.77471135  0.18912214  0.23721330     0.36100
C406        C  0.68269411  0.30417468  0.29999282     0.36100
N407        N  0.79114244  0.16435615  0.22420422    -0.38700
N408        N  0.66271278  0.32665376  0.31243693    -0.38700
N409        N  0.78619200  0.16826004  0.32293012    -0.38100
N410        N  0.66719646  0.32012749  0.21385636    -0.38100
C411        C  0.89366001  0.32480713  0.36041836    -0.04800
C412        C  0.91253896  0.29493374  0.34318708    -0.01900
C413        C  0.95332287  0.29370411  0.34241493     0.03100
C414        C  0.97513397  0.32237416  0.35905262    -0.04800
C415        C  0.95600468  0.35457270  0.37294729    -0.01900
C416        C  0.91523119  0.35573328  0.37357787     0.03100
C417        C  0.89007950  0.26352199  0.32888863     0.37700
C418        C  0.97814292  0.38637209  0.38683813     0.37700
C419        C  0.89525303  0.38846659  0.38798957     0.36100
C420        C  0.97232402  0.26112828  0.32682789     0.36100
N421        N  0.87896652  0.41448825  0.39924383    -0.38700
N422        N  0.98718235  0.23498147  0.31441075    -0.38700
N423        N  0.99577188  0.41176352  0.39789078    -0.38100
N424        N  0.87192710  0.23855708  0.31773052    -0.38100
C425        C  0.13306707  0.41583263  0.37778448    -0.04800
C426        C  0.13566078  0.43575666  0.40796758    -0.01900
C427        C  0.13596431  0.47678938  0.40825965     0.03100
C428        C  0.13437059  0.49792393  0.37827728    -0.04800
C429        C  0.13705520  0.47772026  0.34813797    -0.01900
C430        C  0.13622915  0.43687878  0.34792340     0.03100
C431        C  0.13499381  0.41419548  0.43878790     0.37700
C432        C  0.13953737  0.49885497  0.31710963     0.37700
C433        C  0.13781563  0.41641786  0.31681047     0.36100
C434        C  0.13448290  0.49688677  0.43947956     0.36100
N435        N  0.13915016  0.40012310  0.29202229    -0.38700
N436        N  0.13317893  0.51274764  0.46447038    -0.38700
N437        N  0.14136800  0.51545083  0.29224842    -0.38100
N438        N  0.13460833  0.39690603  0.46334200    -0.38100
C439        C  0.91629699  0.32688464  0.18172229    -0.04800
C440        C  0.93777895  0.30407721  0.20419522    -0.01900
C441        C  0.97876386  0.30575261  0.20348875     0.03100
C442        C  0.99805641  0.33010743  0.18048115    -0.04800
C443        C  0.97649469  0.35770278  0.16251552    -0.01900
C444        C  0.93568442  0.35631089  0.16344237     0.03100
C445        C  0.91822116  0.27750145  0.22675245     0.37700
C446        C  0.99591975  0.38505538  0.14047861     0.37700
C447        C  0.91363862  0.38446061  0.14467632     0.36100
C448        C  0.00124903  0.28212216  0.22596064     0.36100
N449        N  0.89587921  0.40674542  0.12972359    -0.38700
N450        N  0.01940787  0.26367990  0.24402623    -0.38700
N451        N  0.01158703  0.40652648  0.12272187    -0.38100
N452        N  0.90268241  0.25641334  0.24492160    -0.38100
C453        C  0.14291257  0.49376411  0.09777405    -0.04800
C454        C  0.17274979  0.47421558  0.11482485    -0.01900
C455        C  0.17261452  0.43316798  0.11640671     0.03100
C456        C  0.14351791  0.41190586  0.09988066    -0.04800
C457        C  0.11954453  0.43146411  0.07717366    -0.01900
C458        C  0.11922968  0.47229180  0.07612132     0.03100
C459        C  0.20183610  0.49600148  0.13264256     0.37700
C460        C  0.09312072  0.40959683  0.05656208     0.37700
C461        C  0.09284595  0.49214428  0.05410055     0.36100
C462        C  0.19968133  0.41335592  0.13778119     0.36100
N463        N  0.07171044  0.50790745  0.03657822    -0.38700
N464        N  0.22121118  0.39761474  0.15496535    -0.38700
N465        N  0.07192194  0.39210338  0.04031479    -0.38100
N466        N  0.22542479  0.51327086  0.14655533    -0.38100
C467        C  0.14659155  0.26027837  0.29421710    -0.04800
C468        C  0.12685154  0.23291589  0.27455313    -0.01900
C469        C  0.12945026  0.23533805  0.23992630     0.03100
C470        C  0.15257728  0.26468204  0.22488295    -0.04800
C471        C  0.17870466  0.28591426  0.24459960    -0.01900
C472        C  0.17589791  0.28361390  0.27933601     0.03100
C473        C  0.10139923  0.20413644  0.28984230     0.37700
C474        C  0.20711113  0.31155334  0.22913064     0.37700
C475        C  0.20106906  0.30750259  0.29934054     0.36100
C476        C  0.10461204  0.21066805  0.22023598     0.36100
N477        N  0.22132562  0.32647084  0.31527091    -0.38700
N478        N  0.08453859  0.19113666  0.20463092    -0.38700
N479        N  0.22995943  0.33188793  0.21686483    -0.38100
N480        N  0.08093720  0.18132744  0.30200031    -0.38100
C481        C  0.28576006  0.75630250  0.23895229    -0.04800
C482        C  0.25195584  0.76250510  0.25822101    -0.01900
C483        C  0.25402572  0.76059075  0.29306644     0.03100
C484        C  0.28955034  0.75158988  0.30845691    -0.04800
C485        C  0.32053844  0.73795304  0.28901758    -0.01900
C486        C  0.31890787  0.74073851  0.25440546     0.03100
C487        C  0.21611485  0.77414518  0.24263911     0.37700
C488        C  0.35482924  0.72252334  0.30473488     0.37700
C489        C  0.35241413  0.72983343  0.23480343     0.36100
C490        C  0.22083223  0.77155983  0.31299387     0.36100
N491        N  0.37930627  0.72146479  0.21924256    -0.38700
N492        N  0.19441220  0.78033705  0.32898191    -0.38700
N493        N  0.38218793  0.70973895  0.31694796    -0.38100
N494        N  0.18733508  0.78320719  0.23034234    -0.38100
C495        C  0.31800477  0.00040998  0.37162033    -0.04800
C496        C  0.29752082  0.97719798  0.34886308    -0.01900
C497        C  0.30115481  0.93659812  0.34984766     0.03100
C498        C  0.32454388  0.91880147  0.37392441    -0.04800
C499        C  0.34773572  0.94199982  0.39467090    -0.01900
C500        C  0.34443412  0.98268556  0.39355544     0.03100
C501        C  0.27034871  0.99445433  0.32595790     0.37700
C502        C  0.37317862  0.92420557  0.41872876     0.37700
C503        C  0.36764891  0.00604823  0.41573748     0.36100
C504        C  0.28019365  0.91302835  0.32628807     0.36100
N505        N  0.38599549  0.02451652  0.43360619    -0.38700
N506        N  0.26352375  0.89424778  0.30751642    -0.38700
N507        N  0.39347756  0.91012068  0.43793402    -0.38100
N508        N  0.24850059  0.00809457  0.30779107    -0.38100
C509        C  0.31635742  0.92862797  0.17865276    -0.04800
C510        C  0.28688968  0.94877227  0.19568826    -0.01900
C511        C  0.28624156  0.98953053  0.19437774     0.03100
C512        C  0.31680429  0.01002648  0.17846422    -0.04800
C513        C  0.34956252  0.99000725  0.16682257    -0.01900
C514        C  0.34902157  0.94933249  0.16612887     0.03100
C515        C  0.25580189  0.92795842  0.21266935     0.37700
C516        C  0.38316632  0.01138803  0.15431972     0.37700
C517        C  0.38158462  0.92914030  0.15139520     0.36100
C518        C  0.25199147  0.00978022  0.20596376     0.36100
N519        N  0.40749899  0.91334302  0.13930839    -0.38700
N520        N  0.22443235  0.02582608  0.21472360    -0.38700
N521        N  0.40986430  0.02857573  0.14445721    -0.38100
N522        N  0.23119730  0.91150222  0.22657855    -0.38100
C523        C  0.24688623  0.17711665  0.22798508    -0.04800
C524        C  0.21589344  0.15801392  0.24473349    -0.01900
C525        C  0.21595772  0.15510650  0.27945555     0.03100
C526        C  0.24631150  0.17220219  0.29762280    -0.04800
C527        C  0.27058020  0.19973634  0.28143643    -0.01900
C528        C  0.27083434  0.20223582  0.24651959     0.03100
C529        C  0.18486848  0.13986532  0.22631887     0.37700
C530        C  0.29666766  0.22385085  0.30035730     0.37700
C531        C  0.29630994  0.22978392  0.22989255     0.36100
C532        C  0.18555852  0.13340587  0.29646961     0.36100
N533        N  0.31624259  0.25229619  0.21672893    -0.38700
N534        N  0.16119047  0.11625923  0.31007400    -0.38700
N535        N  0.31715857  0.24342007  0.31553232    -0.38100
N536        N  0.16005752  0.12548869  0.21160849    -0.38100
C537        C  0.40985748  0.75803499  0.43899975    -0.04800
C538        C  0.42917639  0.72743253  0.42294772    -0.01900
C539        C  0.47029148  0.72571465  0.42348351     0.03100
C540        C  0.49167879  0.75489406  0.43985548    -0.04800
C541        C  0.47166788  0.77935122  0.46198529    -0.01900
C542        C  0.43085944  0.78100487  0.46143268     0.03100
C543        C  0.40714372  0.69967764  0.40392583     0.37700
C544        C  0.49311893  0.80506962  0.48352887     0.37700
C545        C  0.41062587  0.80806701  0.48255839     0.36100
C546        C  0.49022690  0.69545891  0.40570686     0.36100
N547        N  0.39468246  0.82968712  0.49949665    -0.38700
N548        N  0.50588324  0.67083035  0.39183754    -0.38700
N549        N  0.51046195  0.82580583  0.50029784    -0.38100
N550        N  0.38935029  0.67737065  0.38903307    -0.38100
C551        C  0.48973947  0.78968322  0.11349021    -0.04800
C552        C  0.46942175  0.81863043  0.09593539    -0.01900
C553        C  0.42857175  0.81752949  0.09483713     0.03100
C554        C  0.40775191  0.78800075  0.11189895    -0.04800
C555        C  0.42812108  0.75532302  0.12350845    -0.01900
C556        C  0.46917746  0.75616148  0.12438967     0.03100
C557        C  0.49032564  0.85046997  0.08006469     0.37700
C558        C  0.40708042  0.72185228  0.13632445     0.37700
C559        C  0.48969244  0.72372344  0.13878054     0.36100
C560        C  0.40790586  0.84757218  0.07702897     0.36100
N561        N  0.50595059  0.69767463  0.15015985    -0.38700
N562        N  0.39149619  0.87150368  0.06277893    -0.38700
N563        N  0.39035465  0.69491008  0.14622882    -0.38100
N564        N  0.50688777  0.87596032  0.06748549    -0.38100
C565        C  0.62536902  0.75560669  0.23960488    -0.04800
C566        C  0.59796524  0.73167993  0.25627646    -0.01900
C567        C  0.59732594  0.72994962  0.29102878     0.03100
C568        C  0.62406095  0.75206227  0.30938133    -0.04800
C569        C  0.65540157  0.77051872  0.29267011    -0.01900
C570        C  0.65627720  0.77195437  0.25780699     0.03100
C571        C  0.56899826  0.71049516  0.23774777     0.37700
C572        C  0.68424673  0.79200828  0.31107633     0.37700
C573        C  0.68683998  0.79378109  0.24109110     0.36100
C574        C  0.56775971  0.70705391  0.30798287     0.36100
N575        N  0.71123241  0.81120946  0.22777457    -0.38700
N576        N  0.54414225  0.68874518  0.32143984    -0.38700
N577        N  0.70716059  0.80943653  0.32563755    -0.38100
N578        N  0.54580415  0.69361631  0.22304723    -0.38100
C579        C  0.48683692  0.14817669  0.39110079    -0.04800
C580        C  0.46851382  0.15615029  0.36076671    -0.01900
C581        C  0.42767788  0.15743852  0.35896224     0.03100
C582        C  0.40472260  0.15177706  0.38763242    -0.04800
C583        C  0.42316960  0.14871366  0.41856049    -0.01900
C584        C  0.46414245  0.14675735  0.42028176     0.03100
C585        C  0.49172569  0.16240556  0.33116063     0.37700
C586        C  0.40008995  0.14402857  0.44839144     0.37700
C587        C  0.48250899  0.14009859  0.45183247     0.36100
C588        C  0.40922735  0.16331449  0.32728891     0.36100
N589        N  0.49709182  0.13476488  0.47703660    -0.38700
N590        N  0.39445659  0.16776244  0.30204159    -0.38700
N591        N  0.38173585  0.14023179  0.47221116    -0.38100
N592        N  0.51023449  0.16754780  0.30759432    -0.38100
C593        C  0.56644458  0.99067493  0.37241536    -0.04800
C594        C  0.58742977  0.96983457  0.34828263    -0.01900
C595        C  0.58581864  0.92904980  0.34821790     0.03100
C596        C  0.56452303  0.90883613  0.37290782    -0.04800
C597        C  0.53880026  0.92985661  0.39351656    -0.01900
C598        C  0.53964765  0.97069518  0.39295275     0.03100
C599        C  0.61288873  0.98973097  0.32495847     0.37700
C600        C  0.51278546  0.91014655  0.41651882     0.37700
C601        C  0.51323023  0.99213337  0.41404862     0.36100
C602        C  0.60719383  0.90803420  0.32311833     0.36100
N603        N  0.49219784  0.00922169  0.43073433    -0.38700
N604        N  0.62418801  0.89129032  0.30319610    -0.38700
N605        N  0.49189093  0.89474254  0.43501771    -0.38100
N606        N  0.63336878  0.00552539  0.30637583    -0.38100
C607        C  0.49325469  0.14337691  0.13170631    -0.04800
C608        C  0.47340411  0.16699693  0.15454493    -0.01900
C609        C  0.43245899  0.16923461  0.15404973     0.03100
C610        C  0.41085657  0.14810248  0.13073074    -0.04800
C611        C  0.43083096  0.12736963  0.10601571    -0.01900
C612        C  0.47183351  0.12494923  0.10657041     0.03100
C613        C  0.49445252  0.18605656  0.18070409     0.37700
C614        C  0.40922573  0.10565949  0.08169804     0.37700
C615        C  0.49194405  0.10208182  0.08199929     0.36100
C616        C  0.41228380  0.19198450  0.17864264     0.36100
N617        N  0.50813641  0.08375868  0.06256270    -0.38700
N618        N  0.39613202  0.20997667  0.19831243    -0.38700
N619        N  0.39221400  0.08812023  0.06229034    -0.38100
N620        N  0.51079842  0.20118772  0.20187164    -0.38100
C621        C  0.58820480  0.00127784  0.20411901    -0.04800
C622        C  0.62027946  0.97953903  0.21509360    -0.01900
C623        C  0.61865133  0.93877028  0.21466267     0.03100
C624        C  0.58539375  0.91975361  0.20229441    -0.04800
C625        C  0.55083554  0.94123017  0.19831280    -0.01900
C626        C  0.55212897  0.98205285  0.19988621     0.03100
C627        C  0.65555975  0.99881267  0.22562708     0.37700
C628        C  0.51458643  0.92209561  0.18995697     0.37700
C629        C  0.51676261  0.00387399  0.19486933     0.36100
C630        C  0.65190044  0.91660669  0.22554872     0.36100
N631        N  0.48845539  0.02115759  0.19106266    -0.38700
N632        N  0.67843797  0.89901915  0.23427789    -0.38700
N633        N  0.48565104  0.90698411  0.18316292    -0.38100
N634        N  0.68394847  0.01362183  0.23417967    -0.38100
C635        C  0.64996953  0.15828803  0.24092373    -0.04800
C636        C  0.67846950  0.13593462  0.25706184    -0.01900
C637        C  0.67941561  0.13468191  0.29183089     0.03100
C638        C  0.65219943  0.15605322  0.31048397    -0.04800
C639        C  0.63072051  0.18520976  0.29426800    -0.01900
C640        C  0.62929420  0.18597180  0.25946510     0.03100
C641        C  0.70423110  0.11125153  0.23834702     0.37700
C642        C  0.60726128  0.21202020  0.31302235     0.37700
C643        C  0.60491019  0.21386034  0.24278935     0.36100
C644        C  0.70614868  0.10880609  0.30835124     0.36100
N645        N  0.58555315  0.23631793  0.22958883    -0.38700
N646        N  0.72723344  0.08797143  0.32156493    -0.38700
N647        N  0.58854503  0.23354503  0.32789035    -0.38100
N648        N  0.72498638  0.09164997  0.22348983    -0.38100
In649      In  0.59412856  0.12007917  0.65824766     1.36900
C650        C  0.57374561  0.05033811  0.67905295     0.78100
O651        O  0.53439089  0.13111702  0.67747452    -0.60300
O652        O  0.54571909  0.14560384  0.62751649    -0.51200
C653        C  0.63118278  0.16338643  0.70247233     0.70800
O654        O  0.63786217  0.12821553  0.69726599    -0.46100
C655        C  0.64154771  0.10132435  0.60815924     0.75500
O656        O  0.58868848  0.07491260  0.69808470    -0.57900
O657        O  0.63853473  0.08209154  0.63439623    -0.48000
O658        O  0.56779627  0.06232057  0.65012534    -0.54400
C659        C  0.52080403  0.14275232  0.65048472     0.85700
O660        O  0.60788926  0.17830799  0.68223394    -0.56300
O661        O  0.62197924  0.13225106  0.60784124    -0.59600
In662      In  0.60067763  0.12080645  0.88309943     1.36900
C663        C  0.58447448  0.04806914  0.86867268     0.78100
O664        O  0.64192044  0.12782684  0.84107323    -0.60300
O665        O  0.61255371  0.17818937  0.85575232    -0.51200
C666        C  0.52687921  0.14279807  0.88675425     0.70800
O667        O  0.54020739  0.12029512  0.86528376    -0.46100
C668        C  0.64550353  0.10668169  0.93544388     0.75500
O669        O  0.57858109  0.06210971  0.89679558    -0.57900
O670        O  0.65517795  0.09818298  0.90651496    -0.48000
O671        O  0.59760804  0.07168913  0.84748668    -0.54400
C672        C  0.63452551  0.16264755  0.83465170     0.85700
O673        O  0.55200956  0.15606046  0.90639211    -0.56300
O674        O  0.61513633  0.12677109  0.93743260    -0.59600
In675      In  0.57756649  0.81522598  0.65485664     1.36900
C676        C  0.56843136  0.88725933  0.67563521     0.78100
O677        O  0.55816100  0.78775199  0.70202245    -0.60300
O678        O  0.61485782  0.77481701  0.68535947    -0.51200
C679        C  0.50911053  0.79300509  0.63173725     0.70800
O680        O  0.51778434  0.82738142  0.63894099    -0.46100
C681        C  0.63234930  0.82441408  0.60842552     0.75500
O682        O  0.55898176  0.87615757  0.64734269    -0.57900
O683        O  0.60247226  0.80368767  0.60438618    -0.48000
O684        O  0.58273056  0.86122467  0.69368546    -0.54400
C685        C  0.58971753  0.77108274  0.70801397     0.85700
O686        O  0.53646107  0.76906552  0.63525770    -0.56300
O687        O  0.63604079  0.83745818  0.63706976    -0.59600
In688      In  0.58805366  0.81254381  0.89689552     1.36900
C689        C  0.57792339  0.88407321  0.87460602     0.78100
O690        O  0.53016062  0.82644494  0.91728738    -0.60300
O691        O  0.54466151  0.76701342  0.91588901    -0.51200
C692        C  0.59747489  0.76935940  0.84305688     0.70800
O693        O  0.62428625  0.77314312  0.86391565    -0.46100
C694        C  0.64346177  0.82304298  0.94194680     0.75500
O695        O  0.59499787  0.85868309  0.85777627    -0.57900
O696        O  0.61749248  0.79719492  0.94499032    -0.48000
O697        O  0.56570254  0.87229892  0.90223153    -0.54400
C698        C  0.51893224  0.79205090  0.92196891     0.85700
O699        O  0.56637525  0.78578617  0.85102946    -0.56300
O700        O  0.64359123  0.84031436  0.91460562    -0.59600
In701      In  0.28097016  0.10717513  0.65205835     1.36900
C702        C  0.28731931  0.03809789  0.68045624     0.78100
O703        O  0.27630514  0.16113094  0.68303265    -0.60300
O704        O  0.23069326  0.12022433  0.68531852    -0.51200
C705        C  0.35414213  0.13218532  0.64728977     0.70800
O706        O  0.34042533  0.11467634  0.67210751    -0.46100
C707        C  0.24349229  0.09196215  0.59574331     0.75500
O708        O  0.31026127  0.05027249  0.65827565    -0.57900
O709        O  0.24440962  0.12561813  0.60784619    -0.48000
O710        O  0.26164628  0.06203249  0.68872242    -0.54400
C711        C  0.24570720  0.15011202  0.69769240     0.85700
O712        O  0.32987883  0.13814252  0.62458486    -0.56300
O713        O  0.26248451  0.06734010  0.61161980    -0.59600
In714      In  0.28763991  0.10701647  0.87757726     1.36900
C715        C  0.29923799  0.03735216  0.85251647     0.78100
O716        O  0.34901242  0.11251738  0.86124543    -0.60300
O717        O  0.33441559  0.14007833  0.90591452    -0.51200
C718        C  0.25106997  0.14932238  0.83152787     0.70800
O719        O  0.23590477  0.12049954  0.84600033    -0.46100
C720        C  0.24647316  0.09148999  0.93247275     0.75500
O721        O  0.27929771  0.06266524  0.83794848    -0.57900
O722        O  0.25716263  0.12561060  0.92497250    -0.48000
O723        O  0.31444337  0.04857379  0.87900212    -0.54400
C724        C  0.36065005  0.13259748  0.88498595     0.85700
O725        O  0.28306136  0.15931997  0.84375081    -0.56300
O726        O  0.25628701  0.06633188  0.91201955    -0.59600
In727      In  0.27518268  0.80885388  0.65555231     1.36900
C728        C  0.28571654  0.87643519  0.68503947     0.78100
O729        O  0.33626214  0.82303068  0.64328308    -0.60300
O730        O  0.31931203  0.76424333  0.63786121    -0.51200
C731        C  0.24782092  0.76493886  0.70503960     0.70800
O732        O  0.28352644  0.76924053  0.69883795    -0.46100
C733        C  0.23135048  0.82376600  0.60287088     0.75500
O734        O  0.26364077  0.85059344  0.69708911    -0.57900
O735        O  0.23424573  0.84618419  0.62687176    -0.48000
O736        O  0.30315041  0.86680623  0.65906896    -0.54400
C737        C  0.34618680  0.78936620  0.63544329     0.85700
O738        O  0.22587064  0.77979947  0.68371974    -0.56300
O739        O  0.24873419  0.79195113  0.60646552    -0.59600
In740      In  0.28555198  0.80859468  0.88697299     1.36900
C741        C  0.29451112  0.87458443  0.85377129     0.78100
O742        O  0.28927819  0.76701791  0.84477388    -0.60300
O743        O  0.23360571  0.78545390  0.85907526    -0.51200
C744        C  0.35510455  0.79094513  0.91210853     0.70800
O745        O  0.33005548  0.76495463  0.90605993    -0.46100
C746        C  0.24431096  0.82434398  0.94096525     0.75500
O747        O  0.32090102  0.84947336  0.85495593    -0.57900
O748        O  0.25188806  0.78971637  0.93318498    -0.48000
O749        O  0.26303479  0.86416358  0.86718686    -0.54400
C750        C  0.25359743  0.76730445  0.83832608     0.85700
O751        O  0.34370793  0.82479171  0.90597367    -0.56300
O752        O  0.25802853  0.84955161  0.92168054    -0.59600
In753      In  0.17890286  0.85839192  0.51612995     1.36900
C754        C  0.11351931  0.81531219  0.51292198     0.78100
O755        O  0.20988066  0.81254985  0.99187924    -0.60300
O756        O  0.23726725  0.83628334  0.49975685    -0.51200
C757        C  0.17584775  0.93755186  0.51193818     0.70800
O758        O  0.20411045  0.91775302  0.50211172    -0.46100
C759        C  0.21121174  0.83529753  0.57264194     0.75500
O760        O  0.12727491  0.82737457  0.53958263    -0.57900
O761        O  0.19735563  0.86874802  0.56852521    -0.48000
O762        O  0.13057384  0.82864821  0.48765886    -0.54400
C763        C  0.22152133  0.83584587  0.96988641     0.85700
O764        O  0.14811237  0.91706413  0.52297419    -0.56300
O765        O  0.20796082  0.81339754  0.54817145    -0.59600
In766      In  0.04550283  0.71620484  0.51052566     1.36900
C767        C  0.08396563  0.78410396  0.51168895     0.78100
O768        O  0.09198670  0.69718271  0.54679575    -0.60300
O769        O  0.03576872  0.67275882  0.55161030    -0.51200
C770        C  0.96584970  0.71909140  0.51323978     0.70800
O771        O  0.98743951  0.74675770  0.52227549    -0.46100
C772        C  0.07463480  0.68465147  0.95856833     0.75500
O773        O  0.06976900  0.76835147  0.53727565    -0.57900
O774        O  0.08383621  0.67462627  0.98725850    -0.48000
O775        O  0.07456242  0.76771829  0.48526202    -0.54400
C776        C  0.07004843  0.67388092  0.56217833     0.85700
O777        O  0.98473954  0.69098025  0.50187511    -0.56300
O778        O  0.05145670  0.71279491  0.95737014    -0.59600
In779      In  0.04431061  0.19474932  0.51214811     1.36900
C780        C  0.08367843  0.12819645  0.51407477     0.78100
O781        O  0.05249730  0.21149784  0.95158704    -0.60300
O782        O  0.06845030  0.24874583  0.48753658    -0.51200
C783        C  0.96498854  0.18884457  0.51325830     0.70800
O784        O  0.98628367  0.16807938  0.53127095    -0.46100
C785        C  0.07127472  0.23883064  0.56124589     0.75500
O786        O  0.07267467  0.14526782  0.53981138    -0.57900
O787        O  0.03622965  0.23820647  0.55247781    -0.48000
O788        O  0.07065730  0.14246904  0.48776274    -0.54400
C789        C  0.07702817  0.23876022  0.95342839     0.85700
O790        O  0.98407882  0.21090824  0.49427866    -0.56300
O791        O  0.09289030  0.21628190  0.54534912    -0.59600
In792      In  0.18115532  0.05981927  0.51279370     1.36900
C793        C  0.11397898  0.09830345  0.51417811     0.78100
O794        O  0.20288238  0.10498894  0.54893441    -0.60300
O795        O  0.21979329  0.04666534  0.55603496    -0.51200
C796        C  0.17636171  0.98083856  0.51140899     0.70800
O797        O  0.20397060  0.00025037  0.49891399    -0.46100
C798        C  0.22464932  0.08094360  0.96251176     0.75500
O799        O  0.13067553  0.08713231  0.54003871    -0.57900
O800        O  0.21673798  0.10479126  0.98478245    -0.48000
O801        O  0.12895909  0.08584900  0.48798481    -0.54400
C802        C  0.22164038  0.08114635  0.56609289     0.85700
O803        O  0.15033424  0.00165366  0.52415341    -0.56300
O804        O  0.21255016  0.04689082  0.96817391    -0.59600
In805      In  0.84288212  0.71483567  0.52385416     1.36900
C806        C  0.79961082  0.78004897  0.52860164     0.78100
O807        O  0.82969435  0.71425904  0.96933132    -0.60300
O808        O  0.82042905  0.66550505  0.00046190    -0.51200
C809        C  0.92240229  0.71858086  0.51643571     0.70800
O810        O  0.90236844  0.74661412  0.52659297    -0.46100
C811        C  0.82390078  0.67450486  0.57858153     0.75500
O812        O  0.81553888  0.76947907  0.50215333    -0.57900
O813        O  0.85540847  0.69325447  0.57540079    -0.48000
O814        O  0.80841605  0.75937159  0.55306686    -0.54400
C815        C  0.81778957  0.67971321  0.97187545     0.85700
O816        O  0.90201939  0.68925875  0.50980232    -0.56300
O817        O  0.80185632  0.67678162  0.55406160    -0.59600
In818      In  0.70498417  0.85491419  0.53018742     1.36900
C819        C  0.76982812  0.81089870  0.53015062     0.78100
O820        O  0.65210962  0.82557689  0.55200060    -0.60300
O821        O  0.68988185  0.85426727  0.58487497    -0.51200
C822        C  0.70617952  0.93480327  0.53039247     0.70800
O823        O  0.73626745  0.91452892  0.53419164    -0.46100
C824        C  0.66908247  0.83475173  0.96904852     0.75500
O825        O  0.75871742  0.82965208  0.50524892    -0.57900
O826        O  0.66448123  0.82208547  0.99793919    -0.48000
O827        O  0.75050582  0.81794545  0.55583111    -0.54400
C828        C  0.65917032  0.83455152  0.58128865     0.85700
O829        O  0.67602358  0.91448777  0.52659960    -0.56300
O830        O  0.69542036  0.86024657  0.96599447    -0.59600
In831      In  0.84250294  0.19682252  0.51877182     1.36900
C832        C  0.80016578  0.13114559  0.52231754     0.78100
O833        O  0.80124326  0.21321381  0.56008546    -0.60300
O834        O  0.85477894  0.24344636  0.55602976    -0.51200
C835        C  0.92161788  0.18937034  0.51467903     0.70800
O836        O  0.90077880  0.16803095  0.53312954    -0.46100
C837        C  0.82318256  0.23604840  0.96645326     0.75500
O838        O  0.80905081  0.14768544  0.49549989    -0.57900
O839        O  0.81613794  0.24523445  0.99584310    -0.48000
O840        O  0.81661846  0.14543305  0.54711090    -0.54400
C841        C  0.82330945  0.23879959  0.57170004     0.85700
O842        O  0.90212874  0.21287760  0.49787778    -0.56300
O843        O  0.84320350  0.20576515  0.96325224    -0.59600
In844      In  0.70346095  0.05817749  0.52793360     1.36900
C845        C  0.76938231  0.10112569  0.52457130     0.78100
O846        O  0.69571574  0.07010202  0.96178867    -0.60300
O847        O  0.65293134  0.08700767  0.50252815    -0.51200
C848        C  0.70571442  0.97839372  0.52999850     0.70800
O849        O  0.73539512  0.99963926  0.53347629    -0.46100
C850        C  0.66462404  0.08702380  0.58005920     0.75500
O851        O  0.75144676  0.08943283  0.49969093    -0.57900
O852        O  0.68269580  0.05531230  0.58099536    -0.48000
O853        O  0.75586039  0.08808440  0.55139395    -0.54400
C854        C  0.66654978  0.09172740  0.96431738     0.85700
O855        O  0.67518444  0.99771100  0.52581105    -0.56300
O856        O  0.66676361  0.10433456  0.55272679    -0.59600
In857      In  0.10341793  0.30706753  0.63994228     1.36900
C858        C  0.03800449  0.31396966  0.67436955     0.78100
O859        O  0.09154490  0.36470280  0.61679363    -0.60300
O860        O  0.15050488  0.34989971  0.62250172    -0.51200
C861        C  0.14393980  0.27783780  0.69032406     0.70800
O862        O  0.14203166  0.31360259  0.68404541    -0.46100
C863        C  0.08485153  0.26393411  0.58799761     0.75500
O864        O  0.04909274  0.28244144  0.66229517    -0.57900
O865        O  0.06191294  0.28667890  0.60204068    -0.48000
O866        O  0.06199584  0.34149356  0.67101898    -0.54400
C867        C  0.12636977  0.37555603  0.61404615     0.85700
O868        O  0.12890317  0.25677793  0.66855085    -0.56300
O869        O  0.11905740  0.26433895  0.59926348    -0.59600
In870      In  0.10471115  0.31114490  0.87476948     1.36900
C871        C  0.03305121  0.33582107  0.86673524     0.78100
O872        O  0.10340270  0.27320150  0.83054570    -0.60300
O873        O  0.15861554  0.29148735  0.84654827    -0.51200
C874        C  0.13504241  0.38249614  0.87897751     0.70800
O875        O  0.11294816  0.37136983  0.85637345    -0.46100
C876        C  0.09017572  0.26197009  0.92474264     0.75500
O877        O  0.04870414  0.33334275  0.89461063    -0.57900
O878        O  0.07504262  0.25850074  0.89682818    -0.48000
O879        O  0.05505589  0.32751648  0.84292302    -0.54400
C880        C  0.13925712  0.27424644  0.82469529     0.85700
O881        O  0.14357862  0.35615912  0.89952195    -0.56300
O882        O  0.11563460  0.28848156  0.92642638    -0.59600
In883      In  0.80276396  0.29781252  0.65850607     1.36900
C884        C  0.87446383  0.30972654  0.68082052     0.78100
O885        O  0.79502405  0.24858185  0.69442441    -0.60300
O886        O  0.75095070  0.29046479  0.69253139    -0.51200
C887        C  0.77481684  0.36942029  0.65288141     0.70800
O888        O  0.76962385  0.34437920  0.63068202    -0.46100
C889        C  0.81409755  0.26066459  0.60163449     0.75500
O890        O  0.85681432  0.33262564  0.66204022    -0.57900
O891        O  0.78309354  0.25657266  0.61817963    -0.48000
O892        O  0.85455386  0.28033657  0.68899140    -0.54400
C893        C  0.76442702  0.26134656  0.70744321     0.85700
O894        O  0.79180065  0.35674499  0.67808152    -0.56300
O895        O  0.83778216  0.28446218  0.61342401    -0.59600
In896      In  0.79725210  0.30803311  0.88788017     1.36900
C897        C  0.86841646  0.33328543  0.87428688     0.78100
O898        O  0.78542164  0.36722928  0.86872526    -0.60300
O899        O  0.75936878  0.35164851  0.91448576    -0.51200
C900        C  0.76240097  0.26737014  0.84061284     0.70800
O901        O  0.79806491  0.26661217  0.84663880    -0.46100
C902        C  0.81094964  0.25990845  0.93828908     0.75500
O903        O  0.84426234  0.32459702  0.85243262    -0.57900
O904        O  0.78866717  0.28864931  0.94092239    -0.48000
O905        O  0.85537786  0.33091237  0.90332842    -0.54400
C906        C  0.76528315  0.37781965  0.89297498     0.85700
O907        O  0.74294617  0.28713370  0.86087268    -0.56300
O908        O  0.82375724  0.25439826  0.90965939    -0.59600
In909      In  0.10109138  0.60687150  0.64298266     1.36900
C910        C  0.03485187  0.60121395  0.67666890     0.78100
O911        O  0.13308978  0.59913909  0.69051653    -0.60300
O912        O  0.13283199  0.65531511  0.66951897    -0.51200
C913        C  0.12430076  0.53901145  0.61804689     0.70800
O914        O  0.08945931  0.54825058  0.62256980    -0.46100
C915        C  0.08264465  0.64984461  0.59020975     0.75500
O916        O  0.05605687  0.57239219  0.67094596    -0.57900
O917        O  0.11714676  0.64818985  0.60061903    -0.48000
O918        O  0.04898015  0.63293598  0.66644567    -0.54400
C919        C  0.14155475  0.63443751  0.69397842     0.85700
O920        O  0.14833076  0.56565652  0.62484037    -0.56300
O921        O  0.05883533  0.62903864  0.60601050    -0.59600
In922      In  0.10147780  0.61758086  0.87746725     1.36900
C923        C  0.02885888  0.59676386  0.86575126     0.78100
O924        O  0.10683247  0.55666675  0.86039807    -0.60300
O925        O  0.14306647  0.57358653  0.89980498    -0.51200
C926        C  0.13988126  0.65219158  0.82784851     0.70800
O927        O  0.10430176  0.65680510  0.83346165    -0.46100
C928        C  0.08798416  0.66344855  0.92926668     0.75500
O929        O  0.05167650  0.60843403  0.84334833    -0.57900
O930        O  0.10894899  0.63369307  0.93101634    -0.48000
O931        O  0.04406127  0.59369065  0.89379369    -0.54400
C932        C  0.13243300  0.54679202  0.88070069     0.85700
O933        O  0.15721468  0.63404687  0.85041264    -0.56300
O934        O  0.07734220  0.67193841  0.90057241    -0.59600
In935      In  0.80038773  0.60858295  0.66261463     1.36900
C936        C  0.87181079  0.60009708  0.68509445     0.78100
O937        O  0.79594578  0.54679542  0.67830018    -0.60300
O938        O  0.76877873  0.56188025  0.63333934    -0.51200
C939        C  0.75574033  0.64178429  0.70878591     0.70800
O940        O  0.77378649  0.66120025  0.68714722    -0.46100
C941        C  0.81424067  0.65143686  0.60831291     0.75500
O942        O  0.84748167  0.62187114  0.69890693    -0.57900
O943        O  0.83779674  0.64817835  0.63159387    -0.48000
O944        O  0.85894704  0.58190104  0.66063748    -0.54400
C945        C  0.77668666  0.53539306  0.65397741     0.85700
O946        O  0.75693268  0.60589251  0.70413484    -0.56300
O947        O  0.78260573  0.63303458  0.61262269    -0.59600
In948      In  0.79154386  0.61402274  0.88985037     1.36900
C949        C  0.86420813  0.59852531  0.87343885     0.78100
O950        O  0.79029236  0.65542190  0.84795371    -0.60300
O951        O  0.73645448  0.63097278  0.86300299    -0.51200
C952        C  0.76200377  0.54240459  0.89257608     0.70800
O953        O  0.78779368  0.55309095  0.87231893    -0.46100
C954        C  0.80404988  0.65728189  0.94342589     0.75500
O955        O  0.85168459  0.59647180  0.90260402    -0.57900
O956        O  0.80154119  0.67160779  0.91491372    -0.48000
O957        O  0.83918810  0.60780186  0.85248517    -0.54400
C958        C  0.75482497  0.65110083  0.84172945     0.85700
O959        O  0.74925707  0.56907405  0.91085749    -0.56300
O960        O  0.79608711  0.62162309  0.94509228    -0.59600
C961        C  0.73993008  0.65823072  0.73998162    -0.04800
C962        C  0.75997667  0.68901057  0.75539946    -0.01900
C963        C  0.75993263  0.69134862  0.79010020     0.03100
C964        C  0.73894413  0.66367951  0.80923677    -0.04800
C965        C  0.71111293  0.64020167  0.79332907    -0.01900
C966        C  0.71226550  0.63677020  0.75867712     0.03100
C967        C  0.78422352  0.71548945  0.73621242     0.37700
C968        C  0.68395578  0.61672450  0.81245568     0.37700
C969        C  0.68723482  0.60885401  0.74258200     0.36100
C970        C  0.78444818  0.71985857  0.80608068     0.36100
N971        N  0.66742039  0.58636610  0.72982214    -0.38700
N972        N  0.80431040  0.74238271  0.81874729    -0.38700
N973        N  0.66212209  0.59809285  0.82767308    -0.38100
N974        N  0.80360208  0.73665126  0.72098000    -0.38100
C975        C  0.90535713  0.59176752  0.86505580    -0.04800
C976        C  0.92616919  0.56308855  0.88233784    -0.01900
C977        C  0.96687126  0.56211390  0.87997707     0.03100
C978        C  0.98688879  0.59000480  0.86053215    -0.04800
C979        C  0.96571115  0.61511145  0.83969189    -0.01900
C980        C  0.92492276  0.61615356  0.84210533     0.03100
C981        C  0.90569994  0.53480796  0.90285232     0.37700
C982        C  0.98566134  0.64177631  0.81732735     0.37700
C983        C  0.90365593  0.64443906  0.82277823     0.36100
C984        C  0.98812599  0.53241037  0.89762648     0.36100
N985        N  0.88681051  0.66703608  0.80736814    -0.38700
N986        N  0.00499475  0.50855893  0.91156333    -0.38700
N987        N  0.00147888  0.66295599  0.79938833    -0.38100
N988        N  0.88915464  0.51240147  0.91916205    -0.38100
C989        C  0.91313713  0.59800659  0.69456583    -0.04800
C990        C  0.93314739  0.56267209  0.69151015    -0.01900
C991        C  0.97401766  0.56258530  0.68993393     0.03100
C992        C  0.99488036  0.59815587  0.69085308    -0.04800
C993        C  0.97495719  0.63220819  0.70013005    -0.01900
C994        C  0.93409723  0.63223748  0.70164808     0.03100
C995        C  0.91150946  0.52652488  0.68899184     0.37700
C996        C  0.99621183  0.66772111  0.70695512     0.37700
C997        C  0.91391730  0.66832712  0.70764617     0.36100
C998        C  0.99394958  0.52601085  0.68587079     0.36100
N999        N  0.89795261  0.69718209  0.71237773    -0.38700
N1000       N  0.00969057  0.49671465  0.68283798    -0.38700
N1001       N  0.01310178  0.69607325  0.71236433    -0.38100
N1002       N  0.89406443  0.49783263  0.68704133    -0.38100
C1003       C  0.15599004  0.64987622  0.72596748    -0.04800
C1004       C  0.18005511  0.62687905  0.74620563    -0.01900
C1005       C  0.18242626  0.63423544  0.78029894     0.03100
C1006       C  0.15706712  0.66128496  0.79478865    -0.04800
C1007       C  0.13873207  0.68859986  0.77408440    -0.01900
C1008       C  0.13916430  0.68357081  0.73955464     0.03100
C1009       C  0.19995600  0.59369917  0.73263663     0.37700
C1010       C  0.11689039  0.72009401  0.78848897     0.37700
C1011       C  0.11877625  0.71085919  0.71871315     0.36100
C1012       C  0.20839122  0.61164156  0.80065156     0.36100
N1013       N  0.10268724  0.73283966  0.70212276    -0.38700
N1014       N  0.22944283  0.59390364  0.81683600    -0.38700
N1015       N  0.09927840  0.74508112  0.80000357    -0.38100
N1016       N  0.21547325  0.56674772  0.72224538    -0.38100
C1017       C  0.75238214  0.41877465  0.89595240    -0.04800
C1018       C  0.74078952  0.43916711  0.86737058    -0.01900
C1019       C  0.74033868  0.48007038  0.86704706     0.03100
C1020       C  0.75056677  0.50089651  0.89552975    -0.04800
C1021       C  0.75732554  0.48049512  0.92522876    -0.01900
C1022       C  0.75834167  0.43948006  0.92546214     0.03100
C1023       C  0.73033245  0.41794677  0.83795264     0.37700
C1024       C  0.76699753  0.50171918  0.95480650     0.37700
C1025       C  0.76896751  0.41903680  0.95538149     0.36100
C1026       C  0.73066301  0.50081294  0.83701927     0.36100
N1027       N  0.77749736  0.40284798  0.97930382    -0.38700
N1028       N  0.72291767  0.51729569  0.81304397    -0.38700
N1029       N  0.77481516  0.51876614  0.97830973    -0.38100
N1030       N  0.72195938  0.40077078  0.81465299    -0.38100
C1031       C  0.76473967  0.41126702  0.64970407    -0.04800
C1032       C  0.75161672  0.43144058  0.67777739    -0.01900
C1033       C  0.75294270  0.47232763  0.67837363     0.03100
C1034       C  0.76602327  0.49362854  0.65043902    -0.04800
C1035       C  0.77442228  0.47361880  0.62100951    -0.01900
C1036       C  0.77449058  0.43253247  0.62078649     0.03100
C1037       C  0.73763703  0.40999925  0.70648881     0.37700
C1038       C  0.78614775  0.49512035  0.59170243     0.37700
C1039       C  0.78826094  0.41246306  0.59174126     0.36100
C1040       C  0.74194247  0.49242375  0.70827312     0.36100
N1041       N  0.79957270  0.39653772  0.56863739    -0.38700
N1042       N  0.73341097  0.50834484  0.73221061    -0.38700
N1043       N  0.79540977  0.51228729  0.56828506    -0.38100
N1044       N  0.72643709  0.39278607  0.72928416    -0.38100
C1045       C  0.74955458  0.24740285  0.74034123    -0.04800
C1046       C  0.71915213  0.26738356  0.75653102    -0.01900
C1047       C  0.71827434  0.26910715  0.79134261     0.03100
C1048       C  0.74722621  0.25008164  0.80965707    -0.04800
C1049       C  0.76970298  0.22163157  0.79377962    -0.01900
C1050       C  0.77150736  0.22063837  0.75909911     0.03100
C1051       C  0.69031388  0.28810262  0.73762433     0.37700
C1052       C  0.79307703  0.19528546  0.81323984     0.37700
C1053       C  0.79825504  0.19421777  0.74330663     0.36100
C1054       C  0.68967281  0.29276094  0.80788081     0.36100
N1055       N  0.81984037  0.17315386  0.73096495    -0.38700
N1056       N  0.66663151  0.31151558  0.82101691    -0.38700
N1057       N  0.81150043  0.17422450  0.82887475    -0.38100
N1058       N  0.66718863  0.30454312  0.72256073    -0.38100
C1059       C  0.90958382  0.34248926  0.86674267    -0.04800
C1060       C  0.92899923  0.32265493  0.84114477    -0.01900
C1061       C  0.96967422  0.32475828  0.83852249     0.03100
C1062       C  0.99128343  0.34437274  0.86284350    -0.04800
C1063       C  0.97171813  0.36737824  0.88628388    -0.01900
C1064       C  0.93086347  0.36736900  0.88748008     0.03100
C1065       C  0.90791053  0.29685404  0.81939153     0.37700
C1066       C  0.99347870  0.39008711  0.90990362     0.37700
C1067       C  0.91077668  0.39280133  0.91013951     0.36100
C1068       C  0.98909006  0.30381477  0.81232874     0.36100
N1069       N  0.89479806  0.41342987  0.92794266    -0.38700
N1070       N  0.00465772  0.28723787  0.79144815    -0.38700
N1071       N  0.01085754  0.40781851  0.92895794    -0.38100
N1072       N  0.89130153  0.27591742  0.80227058    -0.38100
C1073       C  0.14745143  0.42400103  0.88103453    -0.04800
C1074       C  0.14741308  0.44390646  0.91143556    -0.01900
C1075       C  0.14768504  0.48502528  0.91180369     0.03100
C1076       C  0.14683050  0.50616204  0.88185450    -0.04800
C1077       C  0.15295632  0.48635583  0.85199332    -0.01900
C1078       C  0.15318548  0.44551004  0.85153710     0.03100
C1079       C  0.14356707  0.42251232  0.94218545     0.37700
C1080       C  0.15839524  0.50809863  0.82152035     0.37700
C1081       C  0.15768857  0.42562257  0.82035441     0.36100
C1082       C  0.14653561  0.50539160  0.94289613     0.36100
N1083       N  0.16099207  0.40965939  0.79553485    -0.38700
N1084       N  0.14609774  0.52167389  0.96771062    -0.38700
N1085       N  0.16296240  0.52529478  0.79718626    -0.38100
N1086       N  0.14035850  0.40561345  0.96681527    -0.38100
C1087       C  0.91606297  0.31583764  0.68983251    -0.04800
C1088       C  0.93799569  0.28564163  0.70438632    -0.01900
C1089       C  0.97892587  0.28719848  0.70312530     0.03100
C1090       C  0.99804195  0.31871426  0.68744656    -0.04800
C1091       C  0.97644969  0.35163165  0.67821960    -0.01900
C1092       C  0.93562276  0.35039546  0.67973170     0.03100
C1093       C  0.91907665  0.25191629  0.71911033     0.37700
C1094       C  0.99568176  0.38536725  0.66371884     0.37700
C1095       C  0.91415586  0.38415308  0.66874513     0.36100
C1096       C  0.00142707  0.25564886  0.71688863     0.36100
N1097       N  0.89706198  0.41086657  0.65958951    -0.38700
N1098       N  0.01925634  0.23055883  0.72809993    -0.38700
N1099       N  0.01087467  0.41213077  0.65185891    -0.38100
N1100       N  0.90432986  0.22485769  0.73090160    -0.38100
C1101       C  0.13470470  0.49884436  0.60772612    -0.04800
C1102       C  0.16450913  0.47812567  0.62374976    -0.01900
C1103       C  0.16575079  0.43710651  0.62184392     0.03100
C1104       C  0.13641867  0.41663174  0.60484356    -0.04800
C1105       C  0.11115247  0.43783984  0.58427128    -0.01900
C1106       C  0.11021315  0.47872478  0.58577873     0.03100
C1107       C  0.19180213  0.49839772  0.64456713     0.37700
C1108       C  0.08563542  0.41754397  0.56184396     0.37700
C1109       C  0.08303678  0.50007475  0.56552188     0.36100
C1110       C  0.19590506  0.41612047  0.63895486     0.36100
N1111       N  0.06141183  0.51723104  0.54943348    -0.38700
N1112       N  0.22033504  0.39951094  0.65229868    -0.38700
N1113       N  0.06545657  0.40153056  0.54369704    -0.38100
N1114       N  0.21364168  0.51443452  0.66125444    -0.38100
C1115       C  0.15520151  0.26077888  0.79242396    -0.04800
C1116       C  0.13430923  0.23286067  0.77418973    -0.01900
C1117       C  0.13607751  0.23342449  0.73941072     0.03100
C1118       C  0.15745608  0.26302702  0.72295038    -0.04800
C1119       C  0.18479901  0.28459539  0.74116395    -0.01900
C1120       C  0.18432352  0.28277093  0.77597451     0.03100
C1121       C  0.10898962  0.20528710  0.79110631     0.37700
C1122       C  0.21213167  0.30997465  0.72411108     0.37700
C1123       C  0.21170287  0.30578368  0.79456497     0.36100
C1124       C  0.11331481  0.20571180  0.72090633     0.36100
N1125       N  0.23383077  0.32387465  0.80941127    -0.38700
N1126       N  0.09536471  0.18335752  0.70618189    -0.38700
N1127       N  0.23406977  0.33015093  0.71052466    -0.38100
N1128       N  0.08866600  0.18335736  0.80454948    -0.38100
C1129       C  0.23405832  0.74942488  0.73745109    -0.04800
C1130       C  0.20569051  0.77006561  0.75533942    -0.01900
C1131       C  0.20787688  0.77166921  0.79006855     0.03100
C1132       C  0.23814953  0.75205052  0.80662547    -0.04800
C1133       C  0.25952810  0.72399171  0.78912391    -0.01900
C1134       C  0.25722606  0.72254278  0.75449659     0.03100
C1135       C  0.17674916  0.79264070  0.73809666     0.37700
C1136       C  0.28589102  0.69856749  0.80645781     0.37700
C1137       C  0.28018352  0.69491892  0.73620566     0.36100
C1138       C  0.18139645  0.79648094  0.80794964     0.36100
N1139       N  0.29823560  0.67252036  0.72171036    -0.38700
N1140       N  0.15998447  0.81626651  0.82194127    -0.38700
N1141       N  0.30705084  0.67844628  0.82035804    -0.38100
N1142       N  0.15350014  0.81045046  0.72433586    -0.38100
C1143       C  0.30230752  0.99661501  0.84147990    -0.04800
C1144       C  0.26918351  0.97682296  0.82966364    -0.01900
C1145       C  0.26835790  0.93596556  0.82961144     0.03100
C1146       C  0.30044438  0.91485963  0.84149166    -0.04800
C1147       C  0.33557283  0.93474719  0.84820004    -0.01900
C1148       C  0.33643224  0.97560150  0.84805888     0.03100
C1149       C  0.23465550  0.99802466  0.82039996     0.37700
C1150       C  0.36982853  0.91370366  0.85836735     0.37700
C1151       C  0.37207276  0.99610082  0.85609611     0.36100
C1152       C  0.23355426  0.91567367  0.81909042     0.36100
N1153       N  0.40036340  0.01260685  0.86248117    -0.38700
N1154       N  0.20574229  0.89955970  0.81084675    -0.38700
N1155       N  0.39716917  0.89700605  0.86659900    -0.38100
N1156       N  0.20703851  0.01483807  0.81303865    -0.38100
C1157       C  0.28863824  0.91641137  0.69761089    -0.04800
C1158       C  0.25447301  0.93694170  0.70509533    -0.01900
C1159       C  0.25440424  0.97771134  0.70252284     0.03100
C1160       C  0.28896738  0.99783159  0.69351865    -0.04800
C1161       C  0.32442618  0.97743920  0.69255516    -0.01900
C1162       C  0.32417711  0.93669806  0.69440772     0.03100
C1163       C  0.21856271  0.91619550  0.71233793     0.37700
C1164       C  0.36102105  0.99812881  0.68839989     0.37700
C1165       C  0.36028158  0.91546779  0.69172230     0.36100
C1166       C  0.21789604  0.99808020  0.70592319     0.36100
N1167       N  0.38903563  0.89848151  0.68969211    -0.38700
N1168       N  0.18865190  0.01412637  0.70845368    -0.38700
N1169       N  0.39017750  0.01465411  0.68507814    -0.38100
N1170       N  0.18993338  0.89970071  0.71824324    -0.38100
C1171       C  0.23267700  0.16609369  0.73017544    -0.04800
C1172       C  0.20361482  0.14632056  0.74876853    -0.01900
C1173       C  0.20497428  0.14647388  0.78352414     0.03100
C1174       C  0.23600377  0.16544116  0.79964672    -0.04800
C1175       C  0.25809061  0.19307164  0.78133365    -0.01900
C1176       C  0.25592175  0.19379041  0.74655558     0.03100
C1177       C  0.17433055  0.12305186  0.73249890     0.37700
C1178       C  0.28483898  0.21899263  0.79779724     0.37700
C1179       C  0.27941249  0.22132788  0.72780324     0.36100
C1180       C  0.17602889  0.12472118  0.80227608     0.36100
N1181       N  0.29807327  0.24344226  0.71292099    -0.38700
N1182       N  0.15281685  0.10732294  0.81705411    -0.38700
N1183       N  0.30632632  0.23970519  0.81078574    -0.38100
N1184       N  0.15115400  0.10416731  0.71959207    -0.38100
C1185       C  0.39551070  0.78377937  0.92405719    -0.04800
C1186       C  0.41712556  0.75108555  0.91393325    -0.01900
C1187       C  0.45802806  0.75063905  0.91784159     0.03100
C1188       C  0.47746846  0.78340795  0.93067359    -0.04800
C1189       C  0.45517081  0.81239702  0.94611520    -0.01900
C1190       C  0.41448459  0.81266468  0.94277221     0.03100
C1191       C  0.39800532  0.71895815  0.89775539     0.37700
C1192       C  0.47420625  0.84247849  0.96508649     0.37700
C1193       C  0.39232572  0.84333906  0.95815849     0.36100
C1194       C  0.47998386  0.71689534  0.90807743     0.36100
N1195       N  0.37475798  0.86784918  0.97044290    -0.38700
N1196       N  0.49748760  0.68964009  0.90101372    -0.38700
N1197       N  0.48943372  0.86638695  0.98023275    -0.38100
N1198       N  0.38296736  0.69311750  0.88489565    -0.38100
C1199       C  0.46878524  0.78281133  0.62218001    -0.04800
C1200       C  0.44729520  0.81001622  0.60380335    -0.01900
C1201       C  0.40648671  0.80927926  0.60513804     0.03100
C1202       C  0.38686006  0.78156305  0.62515198    -0.04800
C1203       C  0.40814798  0.75092176  0.63941620    -0.01900
C1204       C  0.44918147  0.75109919  0.63721993     0.03100
C1205       C  0.46726977  0.83996735  0.58470876     0.37700
C1206       C  0.38840195  0.72144052  0.65905002     0.37700
C1207       C  0.47111441  0.71993039  0.65208000     0.36100
C1208       C  0.38475490  0.83843651  0.58721610     0.36100
N1209       N  0.48866347  0.69469542  0.66336722    -0.38700
N1210       N  0.36748677  0.86178320  0.57302727    -0.38700
N1211       N  0.37278925  0.69796963  0.67492178    -0.38100
N1212       N  0.48325426  0.86393113  0.56965073    -0.38100
C1213       C  0.59697877  0.75284197  0.74080030    -0.04800
C1214       C  0.56527171  0.73881055  0.75986024    -0.01900
C1215       C  0.56806231  0.73702206  0.79440215     0.03100
C1216       C  0.60170156  0.75108630  0.81008132    -0.04800
C1217       C  0.63578150  0.75671943  0.79098523    -0.01900
C1218       C  0.63350721  0.75714672  0.75617952     0.03100
C1219       C  0.52889739  0.72835822  0.74438416     0.37700
C1220       C  0.67241454  0.76499063  0.80683948     0.37700
C1221       C  0.66805362  0.76521482  0.73662445     0.36100
C1222       C  0.53561991  0.72232191  0.81388606     0.36100
N1223       N  0.69566436  0.77142603  0.72097427    -0.38700
N1224       N  0.50962155  0.71013483  0.82902616    -0.38700
N1225       N  0.70178056  0.77142984  0.81939512    -0.38100
N1226       N  0.49944588  0.72008834  0.73276802    -0.38100
C1227       C  0.48452302  0.15102055  0.88826097    -0.04800
C1228       C  0.46425797  0.15570974  0.85842519    -0.01900
C1229       C  0.42352092  0.15241011  0.85783961     0.03100
C1230       C  0.40222836  0.14509382  0.88725637    -0.04800
C1231       C  0.42212565  0.14540379  0.91768185    -0.01900
C1232       C  0.46327527  0.14769745  0.91813614     0.03100
C1233       C  0.48556894  0.16259383  0.82787508     0.37700
C1234       C  0.40074259  0.14097506  0.94840547     0.37700
C1235       C  0.48366053  0.14321041  0.94904838     0.36100
C1236       C  0.40371892  0.15555706  0.82649968     0.36100
N1237       N  0.49985100  0.13937883  0.97372495    -0.38700
N1238       N  0.38799783  0.15768926  0.80147586    -0.38700
N1239       N  0.38384142  0.13773360  0.97303793    -0.38100
N1240       N  0.50270725  0.16785932  0.80360085    -0.38100
C1241       C  0.57794048  0.00666510  0.86196679    -0.04800
C1242       C  0.60733579  0.98482559  0.84656294    -0.01900
C1243       C  0.60556328  0.94404016  0.84769084     0.03100
C1244       C  0.57447737  0.92519624  0.86441904    -0.04800
C1245       C  0.54268150  0.94721529  0.87588444    -0.01900
C1246       C  0.54454875  0.98792764  0.87479532     0.03100
C1247       C  0.64124657  0.00406479  0.83236038     0.37700
C1248       C  0.50839941  0.92813478  0.88956392     0.37700
C1249       C  0.51253852  0.01062273  0.88766384     0.36100
C1250       C  0.63750265  0.92190972  0.83410530     0.36100
N1251       N  0.48717561  0.02885794  0.89792297    -0.38700
N1252       N  0.66302491  0.90434787  0.82329315    -0.38700
N1253       N  0.48102884  0.91305298  0.90053358    -0.38100
N1254       N  0.66836549  0.01939536  0.82118171    -0.38100
C1255       C  0.47828702  0.14909042  0.64626052    -0.04800
C1256       C  0.45577349  0.16249511  0.67309178    -0.01900
C1257       C  0.41498955  0.15834666  0.67296548     0.03100
C1258       C  0.39601579  0.14291046  0.64516391    -0.04800
C1259       C  0.41814867  0.13328753  0.61699171    -0.01900
C1260       C  0.45913865  0.13584108  0.61766512     0.03100
C1261       C  0.47456641  0.18046444  0.70104947     0.37700
C1262       C  0.39906771  0.11726614  0.58834581     0.37700
C1263       C  0.48141343  0.12164597  0.58986164     0.36100
C1264       C  0.39268019  0.16880673  0.70202064     0.36100
N1265       N  0.49905901  0.11008239  0.56769582    -0.38700
N1266       N  0.37488981  0.17667249  0.72529208    -0.38700
N1267       N  0.38378356  0.10436313  0.56558893    -0.38100
N1268       N  0.48944832  0.19509421  0.72323906    -0.38100
C1269       C  0.56634822  0.00955578  0.68837127    -0.04800
C1270       C  0.59564792  0.98787203  0.70404382    -0.01900
C1271       C  0.59475104  0.94706826  0.70256048     0.03100
C1272       C  0.56436361  0.92816000  0.68564955    -0.04800
C1273       C  0.53239028  0.94984104  0.67429418    -0.01900
C1274       C  0.53341339  0.99051966  0.67569451     0.03100
C1275       C  0.62872398  0.00733293  0.71873226     0.37700
C1276       C  0.49904904  0.93049167  0.65994090     0.37700
C1277       C  0.50139270  0.01299424  0.66270619     0.36100
C1278       C  0.62711899  0.92509224  0.71545295     0.36100
N1279       N  0.47612524  0.03118903  0.65229073    -0.38700
N1280       N  0.65304574  0.90762152  0.72558853    -0.38700
N1281       N  0.47249160  0.91520764  0.64835428    -0.38100
N1282       N  0.65514759  0.02278999  0.73038190    -0.38100
C1283       C  0.64563056  0.18233721  0.73299042    -0.04800
C1284       C  0.67711855  0.16516697  0.74946555    -0.01900
C1285       C  0.67722866  0.16341801  0.78415362     0.03100
C1286       C  0.64668233  0.18055850  0.80239227    -0.04800
C1287       C  0.62186633  0.20671511  0.78578890    -0.01900
C1288       C  0.62125206  0.20746520  0.75089310     0.03100
C1289       C  0.70703554  0.14564272  0.73062274     0.37700
C1290       C  0.59424476  0.22973382  0.80410998     0.37700
C1291       C  0.59313609  0.23111497  0.73375805     0.36100
C1292       C  0.70637247  0.14033653  0.80063552     0.36100
N1293       N  0.57081112  0.25013683  0.72005448    -0.38700
N1294       N  0.72934240  0.12131703  0.81353242    -0.38700
N1295       N  0.57213595  0.24828192  0.81854334    -0.38100
N1296       N  0.73064198  0.12997244  0.71540915    -0.38100
loop_ 
_geom_bond_atom_site_label_1 
_geom_bond_atom_site_label_2 
_geom_bond_distance 
_geom_bond_site_symmetry_2 
_ccdc_geom_bond_type 
In1           O3   2.230       .  S
In1           O4   2.275       .  S
In1          O12   2.246       .  S
In1           O6   2.273       .  S
In1           O8   2.240       .  S
In1           O9   2.239       .  S
In1          O10   2.240       .  S
In1          O13   2.292       .  S
C2            O8   1.260       .  A
C2           O10   1.258       .  A
C2          C621   1.489       .  S
O3           C11   1.259       .  A
O4           C11   1.266       .  A
C5           O12   1.258       .  A
C5            O6   1.262       .  A
C5          C635   1.496       .  S
C7            O9   1.255       .  A
C7           O13   1.266       .  A
C7          C202   1.476       .  S
C11         C607   1.494       .  S
In14         O16   2.219       .  S
In14         O17   2.283       .  S
In14         O25   2.277       .  S
In14         O19   2.224       .  S
In14         O21   2.234       .  S
In14         O22   2.258       .  S
In14         O23   2.227       .  S
In14         O26   2.271       .  S
C15          O21   1.261       .  A
C15          O23   1.257       .  A
C15         C593   1.483   1_545  S
O16          C24   1.256       .  A
O17          C24   1.264       .  A
C18          O25   1.265       .  A
C18          O19   1.258       .  A
C18         C579   1.491       .  S
C20          O22   1.257       .  A
C20          O26   1.262       .  A
C20         C206   1.474       .  S
C24         C638   1.496       .  S
In27         O29   2.237       .  S
In27         O30   2.277       .  S
In27         O38   2.265       .  S
In27         O32   2.221       .  S
In27         O34   2.239       .  S
In27         O35   2.276       .  S
In27         O36   2.222       .  S
In27         O39   2.243       .  S
C28          O34   1.260       .  A
C28          O36   1.261       .  A
C28         C624   1.488       .  S
O29          C37   1.256       .  A
O30          C37   1.261       .  A
C31          O38   1.265       .  A
C31          O32   1.260       .  A
C31         C551   1.493       .  S
C33          O35   1.265       .  A
C33          O39   1.255       .  A
C33         C180   1.471       .  S
C37         C565   1.495       .  S
In40         O42   2.195       .  S
In40         O43   2.297       .  S
In40         O51   2.234       .  S
In40         O45   2.282       .  S
In40         O47   2.235       .  S
In40         O48   2.282       .  S
In40         O49   2.235       .  S
In40         O52   2.251       .  S
C41          O47   1.261       .  A
C41          O49   1.256       .  A
C41         C596   1.489       .  S
O42          C50   1.257       .  A
O43          C50   1.268       .  A
C44          O51   1.258       .  A
C44          O45   1.264       .  A
C44         C568   1.492       .  S
C46          O48   1.264       .  A
C46          O52   1.253       .  A
C46         C176   1.474       .  S
C50         C540   1.496       .  S
In53         O55   2.297       .  S
In53         O56   2.236       .  S
In53         O64   2.281       .  S
In53         O58   2.230       .  S
In53         O60   2.213       .  S
In53         O61   2.289       .  S
In53         O62   2.235       .  S
In53         O65   2.244       .  S
C54          O60   1.258       .  A
C54          O62   1.258       .  A
C54         C512   1.469       .  S
O55          C63   1.263       .  A
O56          C63   1.255       .  A
C57          O64   1.267       .  A
C57          O58   1.259       .  A
C57         C610   1.491       .  S
C59          O61   1.267       .  A
C59          O65   1.254       .  A
C59         C154   1.477       .  S
C63         C523   1.506       .  S
In66         O68   2.221       .  S
In66         O69   2.270       .  S
In66         O77   2.290       .  S
In66         O71   2.235       .  S
In66         O73   2.239       .  S
In66         O74   2.267       .  S
In66         O75   2.231       .  S
In66         O78   2.255       .  S
C67          O73   1.260       .  A
C67          O75   1.258       .  A
C67         C495   1.484       .  S
O68          C76   1.259       .  A
O69          C76   1.266       .  A
C70          O77   1.265       .  A
C70          O71   1.258       .  A
C70         C526   1.499       .  S
C72          O74   1.262       .  A
C72          O78   1.258       .  A
C72         C150   1.474       .  S
C76         C582   1.489       .  S
In79         O81   2.204       .  S
In79         O82   2.281       .  S
In79         O90   2.291       .  S
In79         O84   2.219       .  S
In79         O86   2.249       .  S
In79         O87   2.256       .  S
In79         O88   2.209       .  S
In79         O91   2.254       .  S
C80          O86   1.261       .  A
C80          O88   1.257       .  A
C80         C509   1.479       .  S
O81          C89   1.256       .  A
O82          C89   1.268       .  A
C83          O90   1.265       .  A
C83          O84   1.257       .  A
C83         C481   1.494       .  S
C85          O87   1.257       .  A
C85          O91   1.260       .  A
C85         C111   1.468       .  S
C89         C554   1.490       .  S
In92         O94   2.230       .  S
In92         O95   2.287       .  S
In92        O103   2.208       .  S
In92         O97   2.283       .  S
In92         O99   2.247       .  S
In92        O100   2.269       .  S
In92        O101   2.227       .  S
In92        O104   2.264       .  S
C93          O99   1.258       .  A
C93         O101   1.257       .  A
C93         C498   1.479       .  S
O94         C102   1.257       .  A
O95         C102   1.264       .  A
C96         O103   1.259       .  A
C96          O97   1.269       .  A
C96         C537   1.491       .  S
C98         O100   1.257       .  A
C98         O104   1.259       .  A
C98         C115   1.473       .  S
C102        C484   1.488       .  S
In105       O108   2.241   1_554  S
In105       O116   2.308       .  S
In105       O110   2.277       .  S
In105       O112   2.266       .  S
In105       O113   2.267       .  S
In105       O114   2.266   1_554  S
In105       O117   2.247       .  S
In105       O755   2.274   1_554  S
C106        O112   1.260       .  A
C106        O114   1.260   1_554  A
C106        C119   1.476       .  S
O107       In753   2.270       .  S
O107        C115   1.264       .  A
O108        C763   1.261       .  A
C109        O116   1.265       .  A
C109        O110   1.260       .  A
C109        C148   1.496       .  S
C111        O113   1.262       .  A
C111        O117   1.257       .  A
C115        O756   1.260       .  A
In118       O120   2.273       .  S
In118       O121   2.256       .  S
In118       O129   2.277   1_455  S
In118       O123   2.311   1_455  S
In118       O125   2.266       .  S
In118       O127   2.265   1_554  S
In118       O774   2.259   1_554  S
In118       O778   2.277   1_554  S
C119        O125   1.260       .  A
C119        O127   1.260   1_554  A
O120        C128   1.258       .  A
O121        C128   1.261       .  A
C122        O129   1.260       .  A
C122        O123   1.263       .  A
C122        C161   1.495       .  S
C124        O126   1.257       .  A
C124        O130   1.262       .  A
C124        C280   1.475       .  S
O126       In766   2.269       .  S
C128        C267   1.471       .  S
O130       In766   2.268       .  S
In131       O134   2.264   1_554  S
In131       O142   2.279   1_455  S
In131       O136   2.307   1_455  S
In131       O138   2.260       .  S
In131       O139   2.252       .  S
In131       O140   2.271   1_554  S
In131       O143   2.272       .  S
In131       O781   2.276   1_554  S
C132        O138   1.259       .  A
C132        O140   1.261   1_554  A
C132        C145   1.476       .  S
O133       In779   2.273       .  S
O133        C141   1.261       .  A
O134        C789   1.256       .  A
C135        O142   1.260       .  A
C135        O136   1.264       .  A
C135        C187   1.494       .  S
C137        O139   1.260       .  A
C137        O143   1.258       .  A
C137        C215   1.470       .  S
C141        O782   1.258       .  A
C141        C228   1.471       .  S
In144       O146   2.275       .  S
In144       O147   2.270       .  S
In144       O155   2.306       .  S
In144       O149   2.280       .  S
In144       O151   2.267       .  S
In144       O153   2.272   1_554  S
In144       O800   2.265   1_554  S
In144       O804   2.257   1_554  S
C145        O151   1.259       .  A
C145        O153   1.258   1_554  A
O146        C154   1.256       .  A
O147        C154   1.262       .  A
C148        O155   1.264   1_565  A
C148        O149   1.262   1_565  A
C150        O152   1.258       .  A
C150        O156   1.260       .  A
O152       In792   2.270       .  S
O156       In792   2.266       .  S
In157       O168   2.282       .  S
In157       O162   2.315       .  S
In157       O164   2.274   1_554  S
In157       O165   2.262       .  S
In157       O166   2.284       .  S
In157       O169   2.287       .  S
In157       O807   2.263   1_554  S
In157       O808   2.270       .  S
C158        O164   1.257   1_554  A
C158        O166   1.260       .  A
C158        C171   1.481       .  S
O159       In805   2.273       .  S
O159        C167   1.262       .  A
O160       In805   2.262       .  S
O160        C167   1.258       .  A
C161        O168   1.258       .  A
C161        O162   1.263       .  A
C163        O165   1.262       .  A
C163        O169   1.260       .  A
C163        C293   1.481       .  S
C167        C306   1.474       .  S
In170       O172   2.263       .  S
In170       O173   2.264       .  S
In170       O181   2.280       .  S
In170       O175   2.313       .  S
In170       O177   2.279   1_554  S
In170       O179   2.280       .  S
In170       O826   2.256   1_554  S
In170       O830   2.273   1_554  S
C171        O177   1.259   1_554  A
C171        O179   1.258       .  A
O172        C180   1.257       .  A
O173        C180   1.262       .  A
C174        O181   1.260       .  A
C174        O175   1.266       .  A
C174        C200   1.498       .  S
C176        O178   1.258       .  A
C176        O182   1.264       .  A
O178       In818   2.262       .  S
O182       In818   2.267       .  S
In183       O185   2.261       .  S
In183       O186   2.275       .  S
In183       O194   2.283       .  S
In183       O188   2.311       .  S
In183       O190   2.279   1_554  S
In183       O192   2.273       .  S
In183       O839   2.256   1_554  S
In183       O843   2.259   1_554  S
C184        O190   1.257   1_554  A
C184        O192   1.256       .  A
C184        C197   1.475       .  S
O185        C193   1.259       .  A
O186        C193   1.264       .  A
C187        O194   1.258       .  A
C187        O188   1.262       .  A
C189        O191   1.260       .  A
C189        O195   1.261       .  A
C189        C254   1.477       .  S
O191       In831   2.275       .  S
C193        C241   1.478       .  S
O195       In831   2.265       .  S
In196       O199   2.276   1_554  S
In196       O207   2.285       .  S
In196       O201   2.311       .  S
In196       O203   2.266   1_554  S
In196       O204   2.258       .  S
In196       O205   2.265       .  S
In196       O208   2.281       .  S
In196       O846   2.266   1_554  S
C197        O203   1.259   1_554  A
C197        O205   1.260       .  A
O198       In844   2.265       .  S
O198        C206   1.263       .  A
O199        C854   1.258       .  A
C200        O207   1.261   1_565  A
C200        O201   1.263   1_565  A
C202        O204   1.261       .  A
C202        O208   1.259       .  A
C206        O847   1.259       .  A
In209       O211   2.206       .  S
In209       O212   2.284       .  S
In209       O220   2.256       .  S
In209       O214   2.247       .  S
In209       O216   2.243       .  S
In209       O217   2.234       .  S
In209       O218   2.238       .  S
In209       O221   2.283       .  S
C210        O216   1.261       .  A
C210        O218   1.259       .  A
C210        C442   1.482   1_455  S
O211        C219   1.256       .  A
O212        C219   1.266       .  A
C213        O220   1.261       .  A
C213        O214   1.259       .  A
C213        C470   1.491       .  S
C215        O217   1.254       .  A
C215        O221   1.265       .  A
C219        C456   1.489       .  S
In222       O224   2.211       .  S
In222       O225   2.273       .  S
In222       O233   2.269       .  S
In222       O227   2.221       .  S
In222       O229   2.234       .  S
In222       O230   2.270       .  S
In222       O231   2.237       .  S
In222       O234   2.256       .  S
C223        O229   1.260       .  A
C223        O231   1.258       .  A
C223        C414   1.478   1_455  S
O224        C232   1.258       .  A
O225        C232   1.265       .  A
C226        O233   1.265       .  A
C226        O227   1.258       .  A
C226        C425   1.485       .  S
C228        O230   1.258       .  A
C228        O234   1.258       .  A
C232        C467   1.494       .  S
In235       O237   2.242       .  S
In235       O238   2.288       .  S
In235       O246   2.276       .  S
In235       O240   2.235       .  S
In235       O242   2.227       .  S
In235       O243   2.274       .  S
In235       O244   2.261       .  S
In235       O247   2.272       .  S
C236        O242   1.261       .  A
C236        O244   1.260       .  A
C236        C439   1.488       .  S
O237        C245   1.257       .  A
O238        C245   1.260       .  A
C239        O246   1.264       .  A
C239        O240   1.259       .  A
C239        C383   1.488       .  S
C241        O243   1.260       .  A
C241        O247   1.257       .  A
C245        C397   1.500       .  S
In248       O250   2.217       .  S
In248       O251   2.280       .  S
In248       O259   2.290       .  S
In248       O253   2.222       .  S
In248       O255   2.231       .  S
In248       O256   2.278       .  S
In248       O257   2.227       .  S
In248       O260   2.265       .  S
C249        O255   1.257       .  A
C249        O257   1.259       .  A
C249        C411   1.467       .  S
O250        C258   1.258       .  A
O251        C258   1.267       .  A
C252        O259   1.266       .  A
C252        O253   1.256       .  A
C252        C400   1.498       .  S
C254        O256   1.260       .  A
C254        O260   1.257       .  A
C258        C369   1.487       .  S
In261       O263   2.244       .  S
In261       O264   2.259       .  S
In261       O272   2.285       .  S
In261       O266   2.224       .  S
In261       O268   2.244       .  S
In261       O269   2.281       .  S
In261       O270   2.239       .  S
In261       O273   2.238       .  S
C262        O268   1.260       .  A
C262        O270   1.261       .  A
C262        C344   1.490   1_455  S
O263        C271   1.260       .  A
O264        C271   1.262       .  A
C265        O272   1.263       .  A
C265        O266   1.257       .  A
C265        C453   1.494       .  S
C267        O269   1.265       .  A
C267        O273   1.255       .  A
C271        C355   1.493       .  S
In274       O276   2.217       .  S
In274       O277   2.272       .  S
In274       O285   2.274       .  S
In274       O279   2.229       .  S
In274       O281   2.233       .  S
In274       O282   2.272       .  S
In274       O283   2.222       .  S
In274       O286   2.253       .  S
C275        O281   1.260       .  A
C275        O283   1.260       .  A
C275        C330   1.481   1_455  S
O276        C284   1.259       .  A
O277        C284   1.267       .  A
C278        O285   1.263       .  A
C278        O279   1.257       .  A
C278        C358   1.494       .  S
C280        O282   1.262       .  A
C280        O286   1.257       .  A
C284        C428   1.489       .  S
In287       O289   2.238       .  S
In287       O290   2.278       .  S
In287       O298   2.281       .  S
In287       O292   2.238       .  S
In287       O294   2.258       .  S
In287       O295   2.250       .  S
In287       O296   2.220       .  S
In287       O299   2.302       .  S
C288        O294   1.262       .  A
C288        O296   1.261       .  A
C288        C341   1.488       .  S
O289        C297   1.259       .  A
O290        C297   1.265       .  A
C291        O298   1.261       .  A
C291        O292   1.258       .  A
C291        C313   1.500       .  S
C293        O295   1.253       .  A
C293        O299   1.265       .  A
C297        C386   1.499       .  S
In300       O302   2.221       .  S
In300       O303   2.279       .  S
In300       O311   2.283       .  S
In300       O305   2.216       .  S
In300       O307   2.236       .  S
In300       O308   2.267       .  S
In300       O309   2.234       .  S
In300       O312   2.263       .  S
C301        O307   1.259       .  A
C301        O309   1.257       .  A
C301        C327   1.474       .  S
O302        C310   1.258       .  A
O303        C310   1.265       .  A
C304        O311   1.266       .  A
C304        O305   1.257       .  A
C304        C372   1.484       .  S
C306        O308   1.258       .  A
C306        O312   1.260       .  A
C310        C316   1.496       .  S
C313        C314   1.413       .  A
C313        C318   1.416       .  A
C314        C315   1.411       .  A
C314        C319   1.450       .  S
C315        C316   1.415       .  A
C315        C322   1.451       .  S
C316        C317   1.416       .  A
C317        C318   1.417       .  A
C317        C320   1.449       .  S
C318        C321   1.449       .  S
C319        N326   1.157       .  T
C320        N325   1.158       .  T
C321        N323   1.157       .  T
C322        N324   1.157       .  T
C327        C328   1.409       .  A
C327        C332   1.412       .  A
C328        C329   1.406       .  A
C328        C333   1.451       .  S
C329        C330   1.415       .  A
C329        C336   1.452       .  S
C330        C331   1.417       .  A
C331        C332   1.407       .  A
C331        C334   1.452       .  S
C332        C335   1.453       .  S
C333        N340   1.157       .  T
C334        N339   1.158       .  T
C335        N337   1.157       .  T
C336        N338   1.157   1_655  T
C341        C342   1.412       .  A
C341        C346   1.414       .  A
C342        C343   1.408       .  A
C342        C347   1.452       .  S
C343        C344   1.416       .  A
C343        C350   1.449       .  S
C344        C345   1.415       .  A
C345        C346   1.412       .  A
C345        C348   1.451       .  S
C346        C349   1.450       .  S
C347        N354   1.157       .  T
C348        N353   1.157   1_655  T
C349        N351   1.157       .  T
C350        N352   1.156   1_655  T
C355        C356   1.415       .  A
C355        C360   1.416       .  A
C356        C357   1.415       .  A
C356        C361   1.450       .  S
C357        C358   1.415       .  A
C357        C364   1.450       .  S
C358        C359   1.413       .  A
C359        C360   1.412       .  A
C359        C362   1.450       .  S
C360        C363   1.451       .  S
C361        N368   1.157       .  T
C362        N367   1.157       .  T
C363        N365   1.157       .  T
C364        N366   1.157       .  T
C369        C370   1.412       .  A
C369        C374   1.415       .  A
C370        C371   1.408       .  A
C370        C375   1.451       .  S
C371        C372   1.412       .  A
C371        C378   1.452       .  S
C372        C373   1.413       .  A
C373        C374   1.417       .  A
C373        C376   1.450       .  S
C374        C377   1.450       .  S
C375        N382   1.157       .  T
C376        N381   1.157       .  T
C377        N379   1.157       .  T
C378        N380   1.157       .  T
C383        C384   1.410       .  A
C383        C388   1.412       .  A
C384        C385   1.411       .  A
C384        C389   1.451       .  S
C385        C386   1.418       .  A
C385        C392   1.451       .  S
C386        C387   1.419       .  A
C387        C388   1.417       .  A
C387        C390   1.450       .  S
C388        C391   1.451       .  S
C389        N396   1.157       .  T
C390        N395   1.158       .  T
C391        N393   1.157       .  T
C392        N394   1.157       .  T
C397        C398   1.415       .  A
C397        C402   1.411       .  A
C398        C399   1.418       .  A
C398        C403   1.448       .  S
C399        C400   1.416       .  A
C399        C406   1.449       .  S
C400        C401   1.416       .  A
C401        C402   1.411       .  A
C401        C404   1.450       .  S
C402        C405   1.450       .  S
C403        N410   1.157       .  T
C404        N409   1.157       .  T
C405        N407   1.157       .  T
C406        N408   1.157       .  T
C411        C412   1.410       .  A
C411        C416   1.406       .  A
C412        C413   1.406       .  A
C412        C417   1.454       .  S
C413        C414   1.416       .  A
C413        C420   1.452       .  S
C414        C415   1.415       .  A
C415        C416   1.405       .  A
C415        C418   1.451       .  S
C416        C419   1.451       .  S
C417        N424   1.157       .  T
C418        N423   1.157       .  T
C419        N421   1.157       .  T
C420        N422   1.157       .  T
C425        C426   1.413       .  A
C425        C430   1.411       .  A
C426        C427   1.415       .  A
C426        C431   1.450       .  S
C427        C428   1.415       .  A
C427        C434   1.450       .  S
C428        C429   1.416       .  A
C429        C430   1.409       .  A
C429        C432   1.452       .  S
C430        C433   1.453       .  S
C431        N438   1.157       .  T
C432        N437   1.157       .  T
C433        N435   1.157       .  T
C434        N436   1.157       .  T
C439        C440   1.417       .  A
C439        C444   1.413       .  A
C440        C441   1.413       .  A
C440        C445   1.449       .  S
C441        C442   1.410       .  A
C441        C448   1.451   1_655  S
C442        C443   1.413       .  A
C443        C444   1.406       .  A
C443        C446   1.451       .  S
C444        C447   1.452       .  S
C445        N452   1.157       .  T
C446        N451   1.157   1_655  T
C447        N449   1.157       .  T
C448        N450   1.157       .  T
C453        C454   1.416       .  A
C453        C458   1.414       .  A
C454        C455   1.416       .  A
C454        C459   1.449       .  S
C455        C456   1.414       .  A
C455        C462   1.450       .  S
C456        C457   1.413       .  A
C457        C458   1.408       .  A
C457        C460   1.452       .  S
C458        C461   1.451       .  S
C459        N466   1.157       .  T
C460        N465   1.157       .  T
C461        N463   1.157       .  T
C462        N464   1.157       .  T
C467        C468   1.414       .  A
C467        C472   1.415       .  A
C468        C469   1.410       .  A
C468        C473   1.452       .  S
C469        C470   1.415       .  A
C469        C476   1.451       .  S
C470        C471   1.413       .  A
C471        C472   1.415       .  A
C471        C474   1.450       .  S
C472        C475   1.449       .  S
C473        N480   1.157       .  T
C474        N479   1.157       .  T
C475        N477   1.158       .  T
C476        N478   1.157       .  T
C481        C482   1.416       .  A
C481        C486   1.414       .  A
C482        C483   1.418       .  A
C482        C487   1.450       .  S
C483        C484   1.414       .  A
C483        C490   1.450       .  S
C484        C485   1.409       .  A
C485        C486   1.409       .  A
C485        C488   1.450       .  S
C486        C489   1.451       .  S
C487        N494   1.157       .  T
C488        N493   1.157       .  T
C489        N491   1.157       .  T
C490        N492   1.157       .  T
C495        C496   1.416   1_545  A
C495        C500   1.417   1_545  A
C496        C497   1.407       .  A
C496        C501   1.452       .  S
C497        C498   1.411       .  A
C497        C504   1.453       .  S
C498        C499   1.414       .  A
C499        C500   1.409       .  A
C499        C502   1.453       .  S
C500        C503   1.453   1_565  S
C501        N508   1.158   1_565  T
C502        N507   1.158       .  T
C503        N505   1.157       .  T
C504        N506   1.157       .  T
C509        C510   1.414       .  A
C509        C514   1.417       .  A
C510        C511   1.407       .  A
C510        C515   1.451       .  S
C511        C512   1.413   1_565  A
C511        C518   1.453   1_565  S
C512        C513   1.408   1_545  A
C513        C514   1.403       .  A
C513        C516   1.454   1_565  S
C514        C517   1.452       .  S
C515        N522   1.157       .  T
C516        N521   1.157       .  T
C517        N519   1.157       .  T
C518        N520   1.158       .  T
C523        C524   1.417       .  A
C523        C528   1.416       .  A
C524        C525   1.413       .  A
C524        C529   1.450       .  S
C525        C526   1.412       .  A
C525        C532   1.450       .  S
C526        C527   1.415       .  A
C527        C528   1.420       .  A
C527        C530   1.449       .  S
C528        C531   1.448       .  S
C529        N536   1.157       .  T
C530        N535   1.157       .  T
C531        N533   1.157       .  T
C532        N534   1.157       .  T
C537        C538   1.413       .  A
C537        C542   1.412       .  A
C538        C539   1.418       .  A
C538        C543   1.449       .  S
C539        C540   1.416       .  A
C539        C546   1.448       .  S
C540        C541   1.416       .  A
C541        C542   1.408       .  A
C541        C544   1.453       .  S
C542        C545   1.451       .  S
C543        N550   1.157       .  T
C544        N549   1.157       .  T
C545        N547   1.157       .  T
C546        N548   1.157       .  T
C551        C552   1.415       .  A
C551        C556   1.417       .  A
C552        C553   1.408       .  A
C552        C557   1.452       .  S
C553        C554   1.415       .  A
C553        C560   1.453       .  S
C554        C555   1.412       .  A
C555        C556   1.415       .  A
C555        C558   1.449       .  S
C556        C559   1.449       .  S
C557        N564   1.157       .  T
C558        N563   1.157       .  T
C559        N561   1.157       .  T
C560        N562   1.158       .  T
C565        C566   1.414       .  A
C565        C570   1.417       .  A
C566        C567   1.412       .  A
C566        C571   1.451       .  S
C567        C568   1.412       .  A
C567        C574   1.450       .  S
C568        C569   1.415       .  A
C569        C570   1.416       .  A
C569        C572   1.451       .  S
C570        C573   1.451       .  S
C571        N578   1.157       .  T
C572        N577   1.157       .  T
C573        N575   1.157       .  T
C574        N576   1.157       .  T
C579        C580   1.414       .  A
C579        C584   1.415       .  A
C580        C581   1.410       .  A
C580        C585   1.452       .  S
C581        C582   1.414       .  A
C581        C588   1.452       .  S
C582        C583   1.415       .  A
C583        C584   1.416       .  A
C583        C586   1.451       .  S
C584        C587   1.451       .  S
C585        N592   1.157       .  T
C586        N591   1.157       .  T
C587        N589   1.157       .  T
C588        N590   1.158       .  T
C593        C594   1.417       .  A
C593        C598   1.411       .  A
C594        C595   1.407       .  A
C594        C599   1.451       .  S
C595        C596   1.414       .  A
C595        C602   1.454       .  S
C596        C597   1.421       .  A
C597        C598   1.408       .  A
C597        C600   1.451       .  S
C598        C601   1.455       .  S
C599        N606   1.159   1_565  T
C600        N605   1.159       .  T
C601        N603   1.156   1_565  T
C602        N604   1.156       .  T
C607        C608   1.415       .  A
C607        C612   1.416       .  A
C608        C609   1.413       .  A
C608        C613   1.450       .  S
C609        C610   1.412       .  A
C609        C616   1.451       .  S
C610        C611   1.414       .  A
C611        C612   1.416       .  A
C611        C614   1.450       .  S
C612        C615   1.452       .  S
C613        N620   1.157       .  T
C614        N619   1.157       .  T
C615        N617   1.157       .  T
C616        N618   1.157       .  T
C621        C622   1.413   1_545  A
C621        C626   1.416   1_545  A
C622        C623   1.407       .  A
C622        C627   1.450       .  S
C623        C624   1.413       .  A
C623        C630   1.452       .  S
C624        C625   1.416       .  A
C625        C626   1.410       .  A
C625        C628   1.452       .  S
C626        C629   1.452   1_565  S
C627        N634   1.157   1_565  T
C628        N633   1.157       .  T
C629        N631   1.157       .  T
C630        N632   1.157       .  T
C635        C636   1.415       .  A
C635        C640   1.414       .  A
C636        C637   1.413       .  A
C636        C641   1.449       .  S
C637        C638   1.416       .  A
C637        C644   1.451       .  S
C638        C639   1.414       .  A
C639        C640   1.414       .  A
C639        C642   1.449       .  S
C640        C643   1.449       .  S
C641        N648   1.157       .  T
C642        N647   1.157       .  T
C643        N645   1.157       .  T
C644        N646   1.157       .  T
In649       O651   2.232       .  S
In649       O652   2.269       .  S
In649       O660   2.287       .  S
In649       O654   2.213       .  S
In649       O656   2.242       .  S
In649       O657   2.241       .  S
In649       O658   2.211       .  S
In649       O661   2.288       .  S
C650        O656   1.261       .  A
C650        O658   1.261       .  A
C650       C1269   1.473       .  S
O651        C659   1.259       .  A
O652        C659   1.265       .  A
C653        O660   1.262       .  A
C653        O654   1.256       .  A
C653       C1283   1.493       .  S
C655        O657   1.254       .  A
C655        O661   1.266       .  A
C655        C850   1.476       .  S
C659       C1255   1.493       .  S
In662       O664   2.222       .  S
In662       O665   2.294       .  S
In662       O673   2.282       .  S
In662       O667   2.210       .  S
In662       O669   2.222       .  S
In662       O670   2.253       .  S
In662       O671   2.238       .  S
In662       O674   2.276       .  S
C663        O669   1.259       .  A
C663        O671   1.259       .  A
C663       C1241   1.472       .  S
O664        C672   1.255       .  A
O665        C672   1.264       .  A
C666        O673   1.267       .  A
C666        O667   1.258       .  A
C666       C1227   1.489       .  S
C668        O670   1.256       .  A
C668        O674   1.262       .  A
C668        C854   1.475       .  S
C672       C1286   1.499       .  S
In675       O677   2.226       .  S
In675       O678   2.269       .  S
In675       O686   2.275       .  S
In675       O680   2.205       .  S
In675       O682   2.221       .  S
In675       O683   2.255       .  S
In675       O684   2.252       .  S
In675       O687   2.261       .  S
C676        O682   1.258       .  A
C676        O684   1.260       .  A
C676       C1272   1.478       .  S
O677        C685   1.258       .  A
O678        C685   1.264       .  A
C679        O686   1.266       .  A
C679        O680   1.258       .  A
C679       C1199   1.485       .  S
C681        O683   1.261       .  A
C681        O687   1.257       .  A
C681        C828   1.471       .  S
C685       C1213   1.491       .  S
In688       O690   2.211       .  S
In688       O691   2.285       .  S
In688       O699   2.217       .  S
In688       O693   2.286       .  S
In688       O695   2.249       .  S
In688       O696   2.268       .  S
In688       O697   2.217       .  S
In688       O700   2.258       .  S
C689        O695   1.261       .  A
C689        O697   1.258       .  A
C689       C1244   1.480       .  S
O690        C698   1.257       .  A
O691        C698   1.266       .  A
C692        O699   1.257       .  A
C692        O693   1.265       .  A
C692       C1216   1.491       .  S
C694        O696   1.263       .  A
C694        O700   1.256       .  A
C694        C824   1.473       .  S
C698       C1188   1.496       .  S
In701       O703   2.260       .  S
In701       O704   2.239       .  S
In701       O712   2.269       .  S
In701       O706   2.224       .  S
In701       O708   2.227       .  S
In701       O709   2.290       .  S
In701       O710   2.239       .  S
In701       O713   2.242       .  S
C702        O708   1.261       .  A
C702        O710   1.260       .  A
C702       C1160   1.484   1_545  S
O703        C711   1.261       .  A
O704        C711   1.259       .  A
C705        O712   1.266       .  A
C705        O706   1.258       .  A
C705       C1258   1.488       .  S
C707        O709   1.264       .  A
C707        O713   1.253       .  A
C707        C802   1.474       .  S
C711       C1171   1.500       .  S
In714       O716   2.217       .  S
In714       O717   2.289       .  S
In714       O725   2.266       .  S
In714       O719   2.253       .  S
In714       O721   2.247       .  S
In714       O722   2.284       .  S
In714       O723   2.224       .  S
In714       O726   2.239       .  S
C715        O721   1.261       .  A
C715        O723   1.262       .  A
C715       C1143   1.482   1_545  S
O716        C724   1.258       .  A
O717        C724   1.265       .  A
C718        O725   1.259       .  A
C718        O719   1.259       .  A
C718       C1174   1.502       .  S
C720        O722   1.264       .  A
C720        O726   1.252       .  A
C720        C798   1.470       .  S
C724       C1230   1.496       .  S
In727       O729   2.209       .  S
In727       O730   2.287       .  S
In727       O738   2.263       .  S
In727       O732   2.239       .  S
In727       O734   2.261       .  S
In727       O735   2.243       .  S
In727       O736   2.218       .  S
In727       O739   2.276       .  S
C728        O734   1.260       .  A
C728        O736   1.258       .  A
C728       C1157   1.477       .  S
O729        C737   1.256       .  A
O730        C737   1.266       .  A
C731        O738   1.262       .  A
C731        O732   1.261       .  A
C731       C1129   1.489       .  S
C733        O735   1.253       .  A
C733        O739   1.262       .  A
C733        C759   1.468       .  S
C737       C1202   1.486       .  S
In740       O742   2.246       .  S
In740       O743   2.268       .  S
In740       O751   2.221       .  S
In740       O745   2.291       .  S
In740       O747   2.254       .  S
In740       O748   2.286       .  S
In740       O749   2.220       .  S
In740       O752   2.216       .  S
C741        O747   1.261       .  A
C741        O749   1.258       .  A
C741       C1146   1.484       .  S
O742        C750   1.259       .  A
O743        C750   1.258       .  A
C744        O751   1.258       .  A
C744        O745   1.266       .  A
C744       C1185   1.499       .  S
C746        O748   1.266       .  A
C746        O752   1.253       .  A
C746        C763   1.466       .  S
C750       C1132   1.495       .  S
In753       O756   2.253       .  S
In753       O764   2.309       .  S
In753       O758   2.284       .  S
In753       O760   2.268       .  S
In753       O761   2.255       .  S
In753       O762   2.276       .  S
In753       O765   2.261       .  S
C754        O760   1.258       .  A
C754        O762   1.260       .  A
C754        C767   1.477       .  S
O755        C763   1.258       .  A
C757        O764   1.261       .  A
C757        O758   1.258       .  A
C757        C796   1.493       .  S
C759        O761   1.262       .  A
C759        O765   1.258       .  A
In766       O768   2.280       .  S
In766       O769   2.255       .  S
In766       O777   2.291   1_455  S
In766       O771   2.316   1_455  S
In766       O773   2.266       .  S
In766       O775   2.267       .  S
C767        O773   1.262       .  A
C767        O775   1.260       .  A
O768        C776   1.258       .  A
O769        C776   1.260       .  A
C770        O777   1.260       .  A
C770        O771   1.264       .  A
C770        C809   1.501       .  S
C772        O774   1.256       .  A
C772        O778   1.262       .  A
C772        C928   1.474       .  S
C776        C915   1.473       .  S
In779       O782   2.256       .  S
In779       O790   2.275   1_455  S
In779       O784   2.320   1_455  S
In779       O786   2.267       .  S
In779       O787   2.246       .  S
In779       O788   2.257       .  S
In779       O791   2.280       .  S
C780        O786   1.261       .  A
C780        O788   1.260       .  A
C780        C793   1.473       .  S
O781        C789   1.262       .  A
C783        O790   1.257       .  A
C783        O784   1.262       .  A
C783        C835   1.495       .  S
C785        O787   1.261       .  A
C785        O791   1.259       .  A
C785        C863   1.471       .  S
C789        C876   1.474       .  S
In792       O794   2.275       .  S
In792       O795   2.257       .  S
In792       O803   2.304       .  S
In792       O797   2.279       .  S
In792       O799   2.269       .  S
In792       O801   2.256       .  S
C793        O799   1.260       .  A
C793        O801   1.259       .  A
O794        C802   1.259       .  A
O795        C802   1.262       .  A
C796        O803   1.263   1_565  A
C796        O797   1.260   1_565  A
C798        O800   1.257       .  A
C798        O804   1.262       .  A
In805       O816   2.296       .  S
In805       O810   2.320       .  S
In805       O812   2.286       .  S
In805       O813   2.261       .  S
In805       O814   2.283       .  S
In805       O817   2.268       .  S
C806        O812   1.260       .  A
C806        O814   1.259       .  A
C806        C819   1.485       .  S
O807        C815   1.260       .  A
O808        C815   1.260   1_554  A
C809        O816   1.259       .  A
C809        O810   1.262       .  A
C811        O813   1.264       .  A
C811        O817   1.259       .  A
C811        C941   1.475       .  S
C815        C954   1.474       .  S
In818       O820   2.249       .  S
In818       O821   2.277       .  S
In818       O829   2.295       .  S
In818       O823   2.321       .  S
In818       O825   2.285       .  S
In818       O827   2.281       .  S
C819        O825   1.259       .  A
C819        O827   1.259       .  A
O820        C828   1.256       .  A
O821        C828   1.263       .  A
C822        O829   1.260       .  A
C822        O823   1.264       .  A
C822        C848   1.503       .  S
C824        O826   1.257       .  A
C824        O830   1.263       .  A
In831       O833   2.268       .  S
In831       O834   2.256       .  S
In831       O842   2.279       .  S
In831       O836   2.323       .  S
In831       O838   2.259       .  S
In831       O840   2.277       .  S
C832        O838   1.260       .  A
C832        O840   1.261       .  A
C832        C845   1.478       .  S
O833        C841   1.257       .  A
O834        C841   1.261       .  A
C835        O842   1.257       .  A
C835        O836   1.262       .  A
C837        O839   1.259       .  A
C837        O843   1.263       .  A
C837        C902   1.470       .  S
C841        C889   1.469       .  S
In844       O847   2.263       .  S
In844       O855   2.297   1_545  S
In844       O849   2.317   1_545  S
In844       O851   2.266       .  S
In844       O852   2.266       .  S
In844       O853   2.290       .  S
In844       O856   2.276       .  S
C845        O851   1.256       .  A
C845        O853   1.260       .  A
O846        C854   1.260       .  A
C848        O855   1.261       .  A
C848        O849   1.263       .  A
C850        O852   1.263       .  A
C850        O856   1.257       .  A
In857       O859   2.234       .  S
In857       O860   2.290       .  S
In857       O868   2.266       .  S
In857       O862   2.251       .  S
In857       O864   2.232       .  S
In857       O865   2.223       .  S
In857       O866   2.249       .  S
In857       O869   2.286       .  S
C858        O864   1.257       .  A
C858        O866   1.260       .  A
C858       C1090   1.482   1_455  S
O859        C867   1.258       .  A
O860        C867   1.266       .  A
C861        O868   1.260       .  A
C861        O862   1.260       .  A
C861       C1118   1.495       .  S
C863        O865   1.255       .  A
C863        O869   1.267       .  A
C867       C1104   1.499       .  S
In870       O872   2.231       .  S
In870       O873   2.285       .  S
In870       O881   2.286       .  S
In870       O875   2.217       .  S
In870       O877   2.228       .  S
In870       O878   2.253       .  S
In870       O879   2.226       .  S
In870       O882   2.268       .  S
C871        O877   1.260       .  A
C871        O879   1.260       .  A
C871       C1062   1.480   1_455  S
O872        C880   1.256       .  A
O873        C880   1.264       .  A
C874        O881   1.266       .  A
C874        O875   1.257       .  A
C874       C1073   1.494       .  S
C876        O878   1.257       .  A
C876        O882   1.265       .  A
C880       C1115   1.496       .  S
In883       O885   2.242       .  S
In883       O886   2.260       .  S
In883       O894   2.222       .  S
In883       O888   2.275       .  S
In883       O890   2.214       .  S
In883       O891   2.281       .  S
In883       O892   2.262       .  S
In883       O895   2.237       .  S
C884        O890   1.257       .  A
C884        O892   1.260       .  A
C884       C1087   1.495       .  S
O885        C893   1.259       .  A
O886        C893   1.262       .  A
C887        O894   1.259       .  A
C887        O888   1.266       .  A
C887       C1031   1.492       .  S
C889        O891   1.264       .  A
C889        O895   1.253       .  A
C893       C1045   1.501       .  S
In896       O898   2.220       .  S
In896       O899   2.273       .  S
In896       O907   2.290       .  S
In896       O901   2.210       .  S
In896       O903   2.226       .  S
In896       O904   2.266       .  S
In896       O905   2.242       .  S
In896       O908   2.247       .  S
C897        O903   1.257       .  A
C897        O905   1.260       .  A
C897       C1059   1.480       .  S
O898        C906   1.258       .  A
O899        C906   1.265       .  A
C900        O907   1.264       .  A
C900        O901   1.255       .  A
C900       C1048   1.492       .  S
C902        O904   1.263       .  A
C902        O908   1.257       .  A
C906       C1017   1.489       .  S
In909       O911   2.245       .  S
In909       O912   2.273       .  S
In909       O920   2.290       .  S
In909       O914   2.226       .  S
In909       O916   2.243       .  S
In909       O917   2.287       .  S
In909       O918   2.225       .  S
In909       O921   2.234       .  S
C910        O916   1.260       .  A
C910        O918   1.260       .  A
C910        C992   1.491   1_455  S
O911        C919   1.259       .  A
O912        C919   1.262       .  A
C913        O920   1.265       .  A
C913        O914   1.257       .  A
C913       C1101   1.496       .  S
C915        O917   1.266       .  A
C915        O921   1.255       .  A
C919       C1003   1.495       .  S
In922       O924   2.226       .  S
In922       O925   2.282       .  S
In922       O933   2.271       .  S
In922       O927   2.233       .  S
In922       O929   2.235       .  S
In922       O930   2.265       .  S
In922       O931   2.231       .  S
In922       O934   2.264       .  S
C923        O929   1.259       .  A
C923        O931   1.261       .  A
C923        C978   1.480   1_455  S
O924        C932   1.259       .  A
O925        C932   1.265       .  A
C926        O933   1.262       .  A
C926        O927   1.256       .  A
C926       C1006   1.493       .  S
C928        O930   1.261       .  A
C928        O934   1.257       .  A
C932       C1076   1.490       .  S
In935       O937   2.223       .  S
In935       O938   2.284       .  S
In935       O946   2.247       .  S
In935       O940   2.273       .  S
In935       O942   2.247       .  S
In935       O943   2.243       .  S
In935       O944   2.225       .  S
In935       O947   2.282       .  S
C936        O942   1.261       .  A
C936        O944   1.260       .  A
C936        C989   1.480       .  S
O937        C945   1.258       .  A
O938        C945   1.267       .  A
C939        O946   1.255       .  A
C939        O940   1.258       .  A
C939        C961   1.493       .  S
C941        O943   1.255       .  A
C941        O947   1.267       .  A
C945       C1034   1.492       .  S
In948       O950   2.213       .  S
In948       O951   2.274       .  S
In948       O959   2.275       .  S
In948       O953   2.227       .  S
In948       O955   2.226       .  S
In948       O956   2.264       .  S
In948       O957   2.239       .  S
In948       O960   2.267       .  S
C949        O955   1.258       .  A
C949        O957   1.257       .  A
C949        C975   1.476       .  S
O950        C958   1.257       .  A
O951        C958   1.266       .  A
C952        O959   1.266       .  A
C952        O953   1.257       .  A
C952       C1020   1.485       .  S
C954        O956   1.259       .  A
C954        O960   1.259       .  A
C958        C964   1.495       .  S
C961        C962   1.415       .  A
C961        C966   1.415       .  A
C962        C963   1.412       .  A
C962        C967   1.451       .  S
C963        C964   1.416       .  A
C963        C970   1.451       .  S
C964        C965   1.413       .  A
C965        C966   1.413       .  A
C965        C968   1.449       .  S
C966        C969   1.450       .  S
C967        N974   1.157       .  T
C968        N973   1.157       .  T
C969        N971   1.157       .  T
C970        N972   1.157       .  T
C975        C976   1.411       .  A
C975        C980   1.414       .  A
C976        C977   1.405       .  A
C976        C981   1.452       .  S
C977        C978   1.412       .  A
C977        C984   1.451       .  S
C978        C979   1.416       .  A
C979        C980   1.408       .  A
C979        C982   1.452       .  S
C980        C983   1.453       .  S
C981        N988   1.157       .  T
C982        N987   1.158   1_655  T
C983        N985   1.158       .  T
C984        N986   1.157   1_655  T
C989        C990   1.410       .  A
C989        C994   1.412       .  A
C990        C991   1.409       .  A
C990        C995   1.452       .  S
C991        C992   1.418       .  A
C991        C998   1.451       .  S
C992        C993   1.417       .  A
C993        C994   1.408       .  A
C993        C996   1.452       .  S
C994        C997   1.452       .  S
C995       N1002   1.157       .  T
C996       N1001   1.157   1_655  T
C997        N999   1.157       .  T
C998       N1000   1.157   1_655  T
C1003      C1004   1.415       .  A
C1003      C1008   1.416       .  A
C1004      C1005   1.412       .  A
C1004      C1009   1.449       .  S
C1005      C1006   1.412       .  A
C1005      C1012   1.450       .  S
C1006      C1007   1.413       .  A
C1007      C1008   1.414       .  A
C1007      C1010   1.450       .  S
C1008      C1011   1.450       .  S
C1009      N1016   1.157       .  T
C1010      N1015   1.157       .  T
C1011      N1013   1.157       .  T
C1012      N1014   1.157       .  T
C1017      C1018   1.414       .  A
C1017      C1022   1.415       .  A
C1018      C1019   1.411       .  A
C1018      C1023   1.452       .  S
C1019      C1020   1.412       .  A
C1019      C1026   1.451       .  S
C1020      C1021   1.413       .  A
C1021      C1022   1.415       .  A
C1021      C1024   1.451       .  S
C1022      C1025   1.450       .  S
C1023      N1030   1.157       .  T
C1024      N1029   1.157       .  T
C1025      N1027   1.157       .  T
C1026      N1028   1.157       .  T
C1031      C1032   1.413       .  A
C1031      C1036   1.416       .  A
C1032      C1033   1.411       .  A
C1032      C1037   1.452       .  S
C1033      C1034   1.415       .  A
C1033      C1040   1.452       .  S
C1034      C1035   1.414       .  A
C1035      C1036   1.417       .  A
C1035      C1038   1.450       .  S
C1036      C1039   1.451       .  S
C1037      N1044   1.158       .  T
C1038      N1043   1.157       .  T
C1039      N1041   1.157       .  T
C1040      N1042   1.157       .  T
C1045      C1046   1.418       .  A
C1045      C1050   1.418       .  A
C1046      C1047   1.415       .  A
C1046      C1051   1.449       .  S
C1047      C1048   1.411       .  A
C1047      C1054   1.448       .  S
C1048      C1049   1.411       .  A
C1049      C1050   1.410       .  A
C1049      C1052   1.452       .  S
C1050      C1053   1.450       .  S
C1051      N1058   1.157       .  T
C1052      N1057   1.157       .  T
C1053      N1055   1.158       .  T
C1054      N1056   1.157       .  T
C1059      C1060   1.415       .  A
C1059      C1064   1.412       .  A
C1060      C1061   1.406       .  A
C1060      C1065   1.453       .  S
C1061      C1062   1.415       .  A
C1061      C1068   1.452       .  S
C1062      C1063   1.414       .  A
C1063      C1064   1.408       .  A
C1063      C1066   1.452       .  S
C1064      C1067   1.451       .  S
C1065      N1072   1.157       .  T
C1066      N1071   1.158   1_655  T
C1067      N1069   1.157       .  T
C1068      N1070   1.157   1_655  T
C1073      C1074   1.417       .  A
C1073      C1078   1.415       .  A
C1074      C1075   1.418       .  A
C1074      C1079   1.450       .  S
C1075      C1076   1.413       .  A
C1075      C1082   1.450       .  S
C1076      C1077   1.412       .  A
C1077      C1078   1.409       .  A
C1077      C1080   1.452       .  S
C1078      C1081   1.453       .  S
C1079      N1086   1.158       .  T
C1080      N1085   1.157       .  T
C1081      N1083   1.157       .  T
C1082      N1084   1.157       .  T
C1087      C1088   1.419       .  A
C1087      C1092   1.421       .  A
C1088      C1089   1.411       .  A
C1088      C1093   1.451       .  S
C1089      C1090   1.411       .  A
C1089      C1096   1.451   1_655  S
C1090      C1091   1.412       .  A
C1091      C1092   1.408       .  A
C1091      C1094   1.453       .  S
C1092      C1095   1.453       .  S
C1093      N1100   1.157       .  T
C1094      N1099   1.157   1_655  T
C1095      N1097   1.157       .  T
C1096      N1098   1.157       .  T
C1101      C1102   1.415       .  A
C1101      C1106   1.414       .  A
C1102      C1103   1.418       .  A
C1102      C1107   1.449       .  S
C1103      C1104   1.415       .  A
C1103      C1110   1.449       .  S
C1104      C1105   1.415       .  A
C1105      C1106   1.412       .  A
C1105      C1108   1.451       .  S
C1106      C1109   1.452       .  S
C1107      N1114   1.157       .  T
C1108      N1113   1.157       .  T
C1109      N1111   1.157       .  T
C1110      N1112   1.157       .  T
C1115      C1116   1.415       .  A
C1115      C1120   1.413       .  A
C1116      C1117   1.413       .  A
C1116      C1121   1.451       .  S
C1117      C1118   1.415       .  A
C1117      C1124   1.450       .  S
C1118      C1119   1.413       .  A
C1119      C1120   1.414       .  A
C1119      C1122   1.449       .  S
C1120      C1123   1.448       .  S
C1121      N1128   1.157       .  T
C1122      N1127   1.157       .  T
C1123      N1125   1.157       .  T
C1124      N1126   1.157       .  T
C1129      C1130   1.413       .  A
C1129      C1134   1.409       .  A
C1130      C1131   1.414       .  A
C1130      C1135   1.451       .  S
C1131      C1132   1.418       .  A
C1131      C1138   1.450       .  S
C1132      C1133   1.413       .  A
C1133      C1134   1.410       .  A
C1133      C1136   1.449       .  S
C1134      C1137   1.449       .  S
C1135      N1142   1.157       .  T
C1136      N1141   1.157       .  T
C1137      N1139   1.157       .  T
C1138      N1140   1.157       .  T
C1143      C1144   1.414       .  A
C1143      C1148   1.412       .  A
C1144      C1145   1.409       .  A
C1144      C1149   1.451       .  S
C1145      C1146   1.414       .  A
C1145      C1152   1.452       .  S
C1146      C1147   1.416       .  A
C1147      C1148   1.409       .  A
C1147      C1150   1.451       .  S
C1148      C1151   1.453       .  S
C1149      N1156   1.158   1_565  T
C1150      N1155   1.158       .  T
C1151      N1153   1.157   1_565  T
C1152      N1154   1.157       .  T
C1157      C1158   1.410       .  A
C1157      C1162   1.410       .  A
C1158      C1159   1.409       .  A
C1158      C1163   1.451       .  S
C1159      C1160   1.417       .  A
C1159      C1166   1.451       .  S
C1160      C1161   1.415       .  A
C1161      C1162   1.406       .  A
C1161      C1164   1.452       .  S
C1162      C1165   1.452       .  S
C1163      N1170   1.157       .  T
C1164      N1169   1.157   1_565  T
C1165      N1167   1.157       .  T
C1166      N1168   1.157   1_565  T
C1171      C1172   1.417       .  A
C1171      C1176   1.415       .  A
C1172      C1173   1.412       .  A
C1172      C1177   1.451       .  S
C1173      C1174   1.416       .  A
C1173      C1180   1.451       .  S
C1174      C1175   1.417       .  A
C1175      C1176   1.415       .  A
C1175      C1178   1.450       .  S
C1176      C1179   1.450       .  S
C1177      N1184   1.158       .  T
C1178      N1183   1.158       .  T
C1179      N1181   1.157       .  T
C1180      N1182   1.157       .  T
C1185      C1186   1.418       .  A
C1185      C1190   1.417       .  A
C1186      C1187   1.419       .  A
C1186      C1191   1.449       .  S
C1187      C1188   1.414       .  A
C1187      C1194   1.449       .  S
C1188      C1189   1.413       .  A
C1189      C1190   1.409       .  A
C1189      C1192   1.452       .  S
C1190      C1193   1.452       .  S
C1191      N1198   1.157       .  T
C1192      N1197   1.157       .  T
C1193      N1195   1.157       .  T
C1194      N1196   1.157       .  T
C1199      C1200   1.412       .  A
C1199      C1204   1.413       .  A
C1200      C1201   1.406       .  A
C1200      C1205   1.452       .  S
C1201      C1202   1.414       .  A
C1201      C1208   1.452       .  S
C1202      C1203   1.414       .  A
C1203      C1204   1.416       .  A
C1203      C1206   1.449       .  S
C1204      C1207   1.449       .  S
C1205      N1212   1.157       .  T
C1206      N1211   1.157       .  T
C1207      N1209   1.157       .  T
C1208      N1210   1.157       .  T
C1213      C1214   1.414       .  A
C1213      C1218   1.416       .  A
C1214      C1215   1.407       .  A
C1214      C1219   1.450       .  S
C1215      C1216   1.411       .  A
C1215      C1222   1.450       .  S
C1216      C1217   1.413       .  A
C1217      C1218   1.416       .  A
C1217      C1220   1.448       .  S
C1218      C1221   1.449       .  S
C1219      N1226   1.157       .  T
C1220      N1225   1.157       .  T
C1221      N1223   1.157       .  T
C1222      N1224   1.157       .  T
C1227      C1228   1.412       .  A
C1227      C1232   1.415       .  A
C1228      C1229   1.407       .  A
C1228      C1233   1.453       .  S
C1229      C1230   1.417       .  A
C1229      C1236   1.452       .  S
C1230      C1231   1.417       .  A
C1231      C1232   1.419       .  A
C1231      C1234   1.450       .  S
C1232      C1235   1.451       .  S
C1233      N1240   1.157       .  T
C1234      N1239   1.158       .  T
C1235      N1237   1.158       .  T
C1236      N1238   1.157       .  T
C1241      C1242   1.412   1_545  A
C1241      C1246   1.409   1_545  A
C1242      C1243   1.408       .  A
C1242      C1247   1.452   1_565  S
C1243      C1244   1.415       .  A
C1243      C1250   1.452       .  S
C1244      C1245   1.415       .  A
C1245      C1246   1.405       .  A
C1245      C1248   1.452       .  S
C1246      C1249   1.453   1_565  S
C1247      N1254   1.158       .  T
C1248      N1253   1.158       .  T
C1249      N1251   1.157       .  T
C1250      N1252   1.157       .  T
C1255      C1256   1.415       .  A
C1255      C1260   1.417       .  A
C1256      C1257   1.411       .  A
C1256      C1261   1.452       .  S
C1257      C1258   1.414       .  A
C1257      C1264   1.452       .  S
C1258      C1259   1.413       .  A
C1259      C1260   1.415       .  A
C1259      C1262   1.451       .  S
C1260      C1263   1.451       .  S
C1261      N1268   1.157       .  T
C1262      N1267   1.157       .  T
C1263      N1265   1.157       .  T
C1264      N1266   1.157       .  T
C1269      C1270   1.413   1_545  A
C1269      C1274   1.409   1_545  A
C1270      C1271   1.409       .  A
C1270      C1275   1.452   1_565  S
C1271      C1272   1.414       .  A
C1271      C1278   1.452       .  S
C1272      C1273   1.414       .  A
C1273      C1274   1.405       .  A
C1273      C1276   1.452       .  S
C1274      C1277   1.453   1_565  S
C1275      N1282   1.157       .  T
C1276      N1281   1.157       .  T
C1277      N1279   1.158       .  T
C1278      N1280   1.158       .  T
C1283      C1284   1.410       .  A
C1283      C1288   1.413       .  A
C1284      C1285   1.409       .  A
C1284      C1289   1.452       .  S
C1285      C1286   1.418       .  A
C1285      C1292   1.450       .  S
C1286      C1287   1.418       .  A
C1287      C1288   1.417       .  A
C1287      C1290   1.449       .  S
C1288      C1291   1.449       .  S
C1289      N1296   1.157       .  T
C1290      N1295   1.157       .  T
C1291      N1293   1.157       .  T
C1292      N1294   1.157       .  T
