geometry optimzed in LAMMPS
_audit_creation_date              2020-11-30 
_audit_creation_method            'lammps2cif' 
_symmetry_space_group_name_H-M    'P1' 
_symmetry_Int_Tables_number       1 
_symmetry_cell_setting            triclinic 
loop_ 
_symmetry_equiv_pos_as_xyz 
  x,y,z 
_cell_length_a                    34.4039486 
_cell_length_b                    34.92248448165941 
_cell_length_c                    34.637896703215816 
_cell_angle_alpha                 88.69764357429351 
_cell_angle_beta                  89.31640863859052 
_cell_angle_gamma                 90.98556515890128 
loop_ 
_atom_site_label 
_atom_site_type_symbol 
_atom_site_fract_x 
_atom_site_fract_y 
_atom_site_fract_z 
_atom_site_charge 
O1          O  0.53407553  0.05774526  0.86083996    -0.81100
O2          O  0.53141550  0.04763144  0.63980346    -0.82600
O3          O  0.60948943  0.04123454  0.73915213    -0.79600
O4          O  0.52116679  0.13163603  0.75611484    -0.78000
O5          O  0.45541645  0.13094197  0.75092613    -0.79800
O6          O  0.60909392  0.97563143  0.74429803    -0.80700
O7          O  0.55791523  0.08847438  0.68283779    -0.82100
O8          O  0.57195439  0.08229139  0.81119248    -0.82400
Eu9        Eu  0.54304808  0.06442031  0.74918816     2.39200
O10         O  0.48761509  0.06163764  0.71043170    -0.89900
O11         O  0.54256940  0.01112496  0.79217273    -0.93500
C12         C  0.56316251  0.07796776  0.84743153     1.01200
C13         C  0.55254213  0.07740495  0.64788696     1.01000
C14         C  0.62610122  0.00836334  0.73775936     1.01000
C15         C  0.48810076  0.14885599  0.75570002     0.98800
H16         H  0.56338849  0.00629260  0.69591930     0.28600
O17         O  0.54194411  0.00713046  0.71407110    -1.02200
H18         H  0.48807738  0.08759492  0.80483896     0.28600
O19         O  0.48782254  0.06482719  0.78967876    -1.04800
O20         O  0.44236506  0.95362789  0.65227332    -0.82000
O21         O  0.44018289  0.97113605  0.87127475    -0.81600
O22         O  0.56125522  0.92477675  0.69616649    -0.80000
O23         O  0.41630815  0.08405467  0.68383178    -0.83300
O24         O  0.40812862  0.08753302  0.81096732    -0.81200
O25         O  0.57046220  0.93742223  0.81937753    -0.79800
O26         O  0.45216974  0.88753964  0.77342872    -0.81400
O27         O  0.36279869  0.97598520  0.75423472    -0.83300
O28         O  0.51802381  0.88806899  0.76500593    -0.80000
O29         O  0.36428998  0.04144129  0.74905346    -0.82700
O30         O  0.52510101  0.95324005  0.64977708    -0.78400
O31         O  0.53828977  0.97235799  0.86392323    -0.78500
O32         O  0.44132057  0.05846740  0.86028420    -0.78100
O33         O  0.44362698  0.04434011  0.63978282    -0.81600
O34         O  0.41125773  0.92191030  0.70283214    -0.81000
O35         O  0.40390923  0.93871950  0.82718889    -0.79400
Eu36       Eu  0.48610121  0.00358108  0.67703806     2.39800
Eu37       Eu  0.48751842  0.01234852  0.83347374     2.39600
Eu38       Eu  0.54189602  0.95415194  0.75721052     2.38400
Eu39       Eu  0.43253665  0.06339520  0.75033432     2.39900
Eu40       Eu  0.43006562  0.95359484  0.76207316     2.39800
O41         O  0.43160625  0.01128839  0.79506296    -0.93800
O42         O  0.48503798  0.95151746  0.72109315    -0.92700
C43         C  0.41936651  0.92727862  0.66669665     1.01400
C44         C  0.41241501  0.94763133  0.86207706     1.00100
C45         C  0.55029094  0.92875126  0.66086775     0.99500
C46         C  0.42270398  0.07287729  0.64901449     1.01500
C47         C  0.41555419  0.08165128  0.84688880     1.00400
C48         C  0.56454293  0.94810248  0.85422701     0.99300
C49         C  0.48528522  0.87071338  0.77205266     0.99300
C50         C  0.34628594  0.00869322  0.74920228     1.02000
H51         H  0.48737137  0.93419076  0.81767642     0.29300
O52         O  0.48702142  0.95523049  0.79929537    -1.05900
H53         H  0.40821165  0.00437500  0.70057314     0.31400
O54         O  0.43061574  0.00556863  0.71691697    -1.08500
C55         C  0.69033316  0.20141869  0.49697244     0.85600
C56         C  0.66920920  0.17923621  0.52980311    -0.54700
C57         C  0.62966433  0.17537934  0.52633407     0.08500
C58         C  0.61495267  0.19484725  0.48811797     0.19400
C59         C  0.67813381  0.18048629  0.45990730    -0.55400
C60         C  0.63866239  0.17586978  0.45575122     0.08600
C61         C  0.66974071  0.23936083  0.49207029    -0.54900
C62         C  0.63102510  0.23688375  0.48696085     0.09200
H63         H  0.68510880  0.16610050  0.55337430     0.13700
H64         H  0.58305046  0.19302522  0.48438398    -0.00600
H65         H  0.69813558  0.17163489  0.43762103     0.14000
H66         H  0.68510536  0.26681860  0.49093448     0.13800
O67         O  0.54254324  0.05816122  0.35290024    -0.81100
O68         O  0.53729877  0.04270684  0.13463634    -0.82600
O69         O  0.61529878  0.04019085  0.25577677    -0.79600
O70         O  0.52611364  0.12688668  0.23589909    -0.78000
O71         O  0.45995277  0.12435120  0.23486320    -0.79800
O72         O  0.61572030  0.97496040  0.25897430    -0.80700
O73         O  0.57380036  0.07536665  0.17843964    -0.82100
O74         O  0.57176361  0.09101531  0.30195066    -0.82400
Eu75       Eu  0.54841344  0.06065863  0.24418616     2.39200
O76         O  0.49163086  0.05807322  0.20742296    -0.89900
O77         O  0.54878256  0.00872943  0.28877964    -0.93500
C78         C  0.56584740  0.08451309  0.33821271     1.01200
C79         C  0.56500337  0.06624960  0.14361499     1.01000
C80         C  0.63295570  0.00819450  0.26049899     1.01000
C81         C  0.49269733  0.14253980  0.23172029     0.98800
H82         H  0.57080057  0.00205780  0.19399938     0.28600
O83         O  0.54768620  0.00336763  0.21000235    -1.02200
H84         H  0.49419142  0.08612270  0.29968497     0.28600
O85         O  0.49376174  0.06236758  0.28586771    -1.04800
O86         O  0.44152528  0.95829751  0.14498989    -0.82000
O87         O  0.45428677  0.95865820  0.36368099    -0.81600
O88         O  0.56969179  0.92419839  0.19677453    -0.80000
O89         O  0.40943830  0.07659922  0.18572192    -0.83300
O90         O  0.41848353  0.08702880  0.31189437    -0.81200
O91         O  0.56462129  0.92862236  0.32037403    -0.79800
O92         O  0.45571163  0.88425800  0.25065091    -0.81400
O93         O  0.36742713  0.97199904  0.26456889    -0.83300
O94         O  0.52131407  0.88580817  0.24428744    -0.80000
O95         O  0.37043235  0.03735594  0.26194202    -0.82700
O96         O  0.53483533  0.95102106  0.14728611    -0.78400
O97         O  0.53692387  0.96670589  0.36559160    -0.78500
O98         O  0.44921320  0.05408830  0.36037327    -0.78100
O99         O  0.44309053  0.04436130  0.13940406    -0.81600
O100        O  0.40860511  0.92757216  0.19420923    -0.81000
O101        O  0.41750568  0.92589246  0.32103801    -0.79400
Eu102      Eu  0.49062367  0.00144142  0.17208035     2.39800
Eu103      Eu  0.49406730  0.00953459  0.32972632     2.39600
Eu104      Eu  0.54696296  0.95155469  0.25510774     2.38400
Eu105      Eu  0.43703727  0.05933158  0.24912012     2.39900
Eu106      Eu  0.43480082  0.95050696  0.25620151     2.39800
O107        O  0.43717801  0.00675518  0.29246716    -0.93800
O108        O  0.49073380  0.95032238  0.21704502    -0.92700
C109        C  0.41524822  0.93438366  0.15783490     1.01400
C110        C  0.42935943  0.93192802  0.35555080     1.00100
C111        C  0.56085716  0.92810780  0.16114234     0.99500
C112        C  0.41666979  0.06809113  0.15024731     1.01500
C113        C  0.42588664  0.08006555  0.34791571     1.00400
C114        C  0.55827334  0.93854702  0.35561388     0.99300
C115        C  0.48810948  0.86792071  0.24344484     0.99300
C116        C  0.35183657  0.00524807  0.26668313     1.02000
H117        H  0.49198918  0.92967146  0.31042998     0.29300
O118        O  0.49145068  0.95244697  0.29413168    -1.05900
H119        H  0.41125884  0.00266814  0.19843785     0.31400
O120        O  0.43496400  0.00324591  0.21307902    -1.08500
C121        C  0.29005503  0.80357310  0.00613746     0.85600
C122        C  0.30564371  0.82477606  0.97032616    -0.54700
C123        C  0.31343816  0.86256555  0.97452776     0.08500
C124        C  0.29982412  0.87702943  0.01505541     0.19400
C125        C  0.31709405  0.81442546  0.04013471    -0.55400
C126        C  0.32288926  0.85295943  0.04400700     0.08600
C127        C  0.25284396  0.82411847  0.01641273    -0.54900
C128        C  0.25670856  0.86226814  0.02300486     0.09200
H129        H  0.31082255  0.81021859  0.94346289     0.13700
H130        H  0.30583853  0.90776102  0.01857303    -0.00600
H131        H  0.32816566  0.79422428  0.06128409     0.14000
H132        H  0.22523855  0.80897485  0.01830980     0.13800
C133        C  0.68357444  0.81356260  0.00024149     0.85600
C134        C  0.65762760  0.82135649  0.03545059    -0.54700
C135        C  0.65220346  0.85894524  0.04289566     0.08500
C136        C  0.67154284  0.88652163  0.01292910     0.19400
C137        C  0.66387540  0.83565323  0.96664201    -0.55400
C138        C  0.65633143  0.87329841  0.97360544     0.08600
C139        C  0.72079155  0.83808302  0.00573649    -0.54900
C140        C  0.71516601  0.87624035  0.01273693     0.09200
H141        H  0.64511393  0.79858615  0.05370788     0.13700
H142        H  0.66535642  0.91674318  0.01920136    -0.00600
H143        H  0.65865275  0.82490658  0.93833939     0.14000
H144        H  0.74956029  0.82591563  0.00381266     0.13800
C145        C  0.68288080  0.81567066  0.51229863     0.85600
C146        C  0.67119323  0.83815436  0.47522200    -0.54700
C147        C  0.63194377  0.84229973  0.47103326     0.08500
C148        C  0.60761233  0.82213177  0.50323671     0.19400
C149        C  0.66221821  0.83588876  0.54543404    -0.55400
C150        C  0.62275896  0.83912320  0.54120976     0.08600
C151        C  0.66042885  0.77753197  0.50856386    -0.54900
C152        C  0.62147725  0.78048547  0.50315714     0.09200
H153        H  0.69174871  0.84963383  0.45381644     0.13700
H154        H  0.57588002  0.82463188  0.49905984    -0.00600
H155        H  0.67756812  0.84670343  0.57025765     0.14000
H156        H  0.67452634  0.75000947  0.50800538     0.13800
C157        C  0.29243882  0.20477589  0.00168855     0.85600
C158        C  0.31206635  0.18605272  0.03709670    -0.54700
C159        C  0.31956410  0.14744735  0.03463907     0.08500
C160        C  0.30221206  0.13077201  0.99710943     0.19400
C161        C  0.31648020  0.19204429  0.96594594    -0.55400
C162        C  0.32221008  0.15348016  0.96413143     0.08600
C163        C  0.25475823  0.18204464  0.99739493    -0.54900
C164        C  0.25919070  0.14377896  0.99537946     0.09200
H165        H  0.31886591  0.20260543  0.06227322     0.13700
H166        H  0.30634797  0.10003801  0.99293446    -0.00600
H167        H  0.32581538  0.21075968  0.94221653     0.14000
H168        H  0.22645310  0.19517917  0.99497050     0.13800
C169        C  0.68713114  0.20836399  0.99921046     0.85600
C170        C  0.66213775  0.19413731  0.96526575    -0.54700
C171        C  0.65957887  0.15470627  0.96204793     0.08500
C172        C  0.68237274  0.13362996  0.99435231     0.19400
C173        C  0.66653515  0.18817744  0.03391039    -0.55400
C174        C  0.66397942  0.14922407  0.03200544     0.08600
C175        C  0.72588107  0.18882239  0.99498592    -0.54900
C176        C  0.72416788  0.15045837  0.99198322     0.09200
H177        H  0.64600177  0.21384621  0.94722275     0.13700
H178        H  0.68239844  0.10206951  0.99248545    -0.00600
H179        H  0.64990714  0.20316763  0.05535529     0.14000
H180        H  0.75346018  0.20457869  0.99432176     0.13800
C181        C  0.29771165  0.20420582  0.50322345     0.85600
C182        C  0.31125369  0.18413446  0.46573160    -0.54700
C183        C  0.35044448  0.17557938  0.46399307     0.08500
C184        C  0.37225602  0.19063794  0.49959252     0.19400
C185        C  0.31302318  0.17873941  0.53666651    -0.55400
C186        C  0.35207742  0.17127042  0.53441656     0.08600
C187        C  0.32368754  0.24010527  0.50241212    -0.54900
C188        C  0.36220946  0.23349536  0.50262830     0.09200
H189        H  0.29147062  0.17818976  0.44244573     0.13700
H190        H  0.40320466  0.18419661  0.49926304    -0.00600
H191        H  0.29437111  0.16724306  0.55978647     0.14000
H192        H  0.31283644  0.26909721  0.50125898     0.13800
C193        C  0.29434480  0.81113417  0.50867019     0.85600
C194        C  0.30817718  0.83198469  0.54460393    -0.54700
C195        C  0.34757013  0.83614144  0.54825195     0.08500
C196        C  0.37021398  0.81763109  0.51472361     0.19400
C197        C  0.31491998  0.83220914  0.47429790    -0.55400
C198        C  0.35417071  0.83675101  0.47756612     0.08600
C199        C  0.31534387  0.77274939  0.51050170    -0.54900
C200        C  0.35469859  0.77536416  0.51480051     0.09200
H201        H  0.28776782  0.84128465  0.56636732     0.13700
H202        H  0.40220073  0.82086739  0.51614593    -0.00600
H203        H  0.30104747  0.84070683  0.44783635     0.14000
H204        H  0.30005421  0.74533358  0.50914497     0.13800
O205        O  0.86351851  0.76749152  0.53705065    -0.81100
O206        O  0.01778821  0.75161119  0.37879200    -0.82600
O207        O  0.91725405  0.82524778  0.41967583    -0.79600
O208        O  0.90496836  0.69958718  0.42476007    -0.78000
O209        O  0.94034477  0.65211052  0.45365770    -0.79800
O210        O  0.94132888  0.86929129  0.46085217    -0.80700
O211        O  0.95165629  0.75506397  0.37830704    -0.82100
O212        O  0.86296931  0.77327787  0.47110414    -0.82400
Eu213      Eu  0.93030421  0.76160924  0.44616444     2.39200
O214        O  0.98619671  0.72387536  0.44621684    -0.89900
O215        O  0.93169483  0.79745376  0.50250143    -0.93500
C216        C  0.84638081  0.77441411  0.50492340     1.01200
C217        C  0.98474730  0.74978474  0.36140900     1.01000
C218        C  0.92202965  0.85988002  0.43074102     1.01000
C219        C  0.91388931  0.66415982  0.43042757     0.98800
H220        H  0.98752111  0.81653579  0.42324152     0.28600
O221        O  0.98721134  0.80020277  0.44621637    -1.02200
H222        H  0.90541959  0.70385055  0.49943534     0.28600
O223        O  0.92891407  0.71932986  0.50006676    -1.04800
O224        O  0.11078521  0.76974098  0.46669233    -0.82000
O225        O  0.95235349  0.74722723  0.62283875    -0.81600
O226        O  0.03020550  0.87176318  0.45428831    -0.80000
O227        O  0.02880194  0.65233494  0.45282635    -0.83300
O228        O  0.93881069  0.64719449  0.54404388    -0.81200
O229        O  0.94441631  0.86365673  0.55233983    -0.79800
O230        O  0.05961203  0.81830574  0.58541933    -0.81400
O231        O  0.06918984  0.69352734  0.57131626    -0.83300
O232        O  0.03380019  0.86596686  0.54828604    -0.80000
O233        O  0.03292567  0.64776070  0.54114537    -0.82700
O234        O  0.05957802  0.82759822  0.41622802    -0.78400
O235        O  0.90851166  0.81645003  0.58265563    -0.78500
O236        O  0.90010363  0.69127508  0.57116679    -0.78100
O237        O  0.06795472  0.69948942  0.42597798    -0.81600
O238        O  0.10757687  0.77185015  0.53227835    -0.81000
O239        O  0.01906415  0.74785104  0.62230570    -0.79400
Eu240      Eu  0.04294104  0.76250517  0.44431525     2.39800
Eu241      Eu  0.92986740  0.75532991  0.55647111     2.39600
Eu242      Eu  0.98789609  0.83678337  0.50276968     2.38400
Eu243      Eu  0.98529080  0.68138144  0.49984191     2.39900
Eu244      Eu  0.04166837  0.75707692  0.55561364     2.39800
O245        O  0.98560677  0.71720042  0.55631030    -0.93800
O246        O  0.04314788  0.79851915  0.50100793    -0.92700
C247        C  0.12652188  0.77435006  0.50004438     1.01400
C248        C  0.98564418  0.74498492  0.63934660     1.00100
C249        C  0.05196644  0.86261227  0.42522092     0.99500
C250        C  0.05756604  0.66394988  0.43117486     1.01500
C251        C  0.90882443  0.65616527  0.56447669     1.00400
C252        C  0.91836263  0.85197231  0.57733432     0.99300
C253        C  0.05437553  0.85404473  0.57700555     0.99300
C254        C  0.06104059  0.65828406  0.56322695     1.02000
H255        H  0.98588824  0.80897100  0.58060228     0.29300
O256        O  0.98602393  0.79473064  0.55700686    -1.05900
H257        H  0.06497114  0.70596643  0.49873742     0.31400
O258        O  0.04177207  0.72113464  0.49921965    -1.08500
O259        O  0.87045483  0.24915359  0.53853581    -0.81100
O260        O  0.02400873  0.27398757  0.38103964    -0.82600
O261        O  0.91202541  0.32231932  0.42844322    -0.79600
O262        O  0.92249900  0.19636568  0.42350695    -0.78000
O263        O  0.95234370  0.14912890  0.45827975    -0.79800
O264        O  0.94594632  0.36938544  0.45936314    -0.80700
O265        O  0.95870409  0.26692100  0.38304167    -0.82100
O266        O  0.87054660  0.25340291  0.47247339    -0.82400
Eu267      Eu  0.93787240  0.25979522  0.45015047     2.39200
O268        O  0.99402701  0.22289029  0.45009392    -0.89900
O269        O  0.93699667  0.29736018  0.50544751    -0.93500
C270        C  0.85341383  0.24803552  0.50544406     1.01200
C271        C  0.99061240  0.27374547  0.36447189     1.01000
C272        C  0.91978884  0.35777018  0.43569331     1.01000
C273        C  0.93009303  0.16079571  0.43076375     0.98800
H274        H  0.99215869  0.31851157  0.42632997     0.28600
O275        O  0.99268123  0.30114100  0.44836338    -1.02200
H276        H  0.91599137  0.20099696  0.50541064     0.28600
O277        O  0.93816793  0.21830058  0.50511815    -1.04800
O278        O  0.11702524  0.25369170  0.46851492    -0.82000
O279        O  0.96072702  0.26468147  0.62728445    -0.81600
O280        O  0.04143281  0.37172297  0.45947986    -0.80000
O281        O  0.03895601  0.15454685  0.45641169    -0.83300
O282        O  0.95289517  0.14774757  0.55472821    -0.81200
O283        O  0.94639933  0.36725239  0.55005206    -0.79800
O284        O  0.07621154  0.32415565  0.57292703    -0.81400
O285        O  0.07394543  0.19918491  0.57894019    -0.83300
O286        O  0.03579813  0.36943261  0.54841229    -0.80000
O287        O  0.04177836  0.15123730  0.54895622    -0.82700
O288        O  0.07698021  0.32688745  0.42816827    -0.78400
O289        O  0.91578949  0.31777024  0.58193627    -0.78500
O290        O  0.92131226  0.19306013  0.58949028    -0.78100
O291        O  0.06139272  0.20278099  0.41643941    -0.81600
O292        O  0.11707862  0.25490960  0.53466185    -0.81000
O293        O  0.02739475  0.26645878  0.62622151    -0.79400
Eu294      Eu  0.04902677  0.26379743  0.44710798     2.39800
Eu295      Eu  0.93845679  0.25624469  0.56042899     2.39600
Eu296      Eu  0.99222763  0.33863060  0.50325788     2.38400
Eu297      Eu  0.99471816  0.18150482  0.50500887     2.39900
Eu298      Eu  0.04961208  0.26107224  0.55768831     2.39800
O299        O  0.99502267  0.21943603  0.56048428    -0.93800
O300        O  0.04902268  0.30160666  0.50240496    -0.92700
C301        C  0.13411772  0.25098234  0.50160100     1.01400
C302        C  0.99400753  0.26854928  0.64379713     1.00100
C303        C  0.06919912  0.36189561  0.43615988     0.99500
C304        C  0.05705186  0.16703993  0.42560597     1.01500
C305        C  0.92982032  0.15803963  0.58232248     1.00400
C306        C  0.92223892  0.35371463  0.57606745     0.99300
C307        C  0.06534555  0.35903942  0.56825927     0.99300
C308        C  0.06768387  0.16355854  0.57258694     1.02000
H309        H  0.99340459  0.31359205  0.57992025     0.29300
O310        O  0.99321496  0.29751112  0.55769276    -1.05900
H311        H  0.07117340  0.20692136  0.50178915     0.31400
O312        O  0.04887197  0.22318294  0.50245951    -1.08500
C313        C  0.78932097  0.50133606  0.69895610     0.85600
C314        C  0.81758843  0.46830628  0.69275849    -0.54700
C315        C  0.82567084  0.46176567  0.65480235     0.08500
C316        C  0.80367476  0.48816315  0.62629135     0.19400
C317        C  0.80790989  0.53535573  0.67638704    -0.55400
C318        C  0.81562060  0.52977194  0.63789321     0.08600
C319        C  0.75367468  0.48897851  0.67574555    -0.54900
C320        C  0.76027704  0.48259479  0.63787685     0.09200
H321        H  0.83039336  0.45178828  0.71614721     0.13700
H322        H  0.80812831  0.48047481  0.59603158    -0.00600
H323        H  0.81605017  0.56144624  0.69088424     0.14000
H324        H  0.72518805  0.48357363  0.68818210     0.13800
C325        C  0.19049963  0.51326942  0.69219638     0.85600
C326        C  0.17230583  0.55015983  0.67679212    -0.54700
C327        C  0.16436889  0.55015360  0.63838284     0.08500
C328        C  0.17706043  0.51282906  0.61813770     0.19400
C329        C  0.16231346  0.48112118  0.67929596    -0.55400
C330        C  0.15553708  0.48016523  0.64038182     0.08600
C331        C  0.22672938  0.50666824  0.66648096    -0.54900
C332        C  0.22002133  0.50645063  0.62766244     0.09200
H333        H  0.16346145  0.57312347  0.69543718     0.13700
H334        H  0.17266419  0.51235678  0.58690999    -0.00600
H335        H  0.14980351  0.45993473  0.69890973     0.14000
H336        H  0.25524610  0.50103902  0.67820853     0.13800
C337        C  0.79903718  0.01571661  0.30378963     0.85600
C338        C  0.81321549  0.98241325  0.33013072    -0.54700
C339        C  0.85258143  0.98167775  0.33663519     0.08500
C340        C  0.87393539  0.01582166  0.31647307     0.19400
C341        C  0.81383585  0.05161253  0.32380331    -0.55400
C342        C  0.85259910  0.05171021  0.33135734     0.08600
C343        C  0.82482261  0.01183158  0.26735819    -0.54900
C344        C  0.86395828  0.01184076  0.27364346     0.09200
H345        H  0.79397433  0.96076536  0.34225736     0.13700
H346        H  0.90557790  0.01625157  0.31972840    -0.00600
H347        H  0.79471435  0.07395541  0.33355047     0.14000
H348        H  0.81289307  0.00722082  0.23892470     0.13800
C349        C  0.79163074  0.00314677  0.69971398     0.85600
C350        C  0.81134411  0.03961531  0.68338679    -0.54700
C351        C  0.85070871  0.03877656  0.67873750     0.08500
C352        C  0.86786378  0.00055020  0.69538500     0.19400
C353        C  0.80740190  0.97007901  0.67541568    -0.55400
C354        C  0.84698671  0.96907156  0.67232429     0.08600
C355        C  0.81114869  0.99577894  0.73835613    -0.54900
C356        C  0.85096719  0.99486940  0.73773971     0.09200
H357        H  0.79458309  0.06450077  0.67543248     0.13700
H358        H  0.89977270  0.99873938  0.69258212    -0.00600
H359        H  0.78994062  0.94689256  0.66441721     0.14000
H360        H  0.79405593  0.99050525  0.76458192     0.13800
C361        C  0.80091827  0.50444329  0.29968337     0.85600
C362        C  0.82265668  0.54216818  0.31082287    -0.54700
C363        C  0.82705471  0.54661446  0.34984770     0.08500
C364        C  0.80881468  0.51355719  0.37397937     0.19400
C365        C  0.82239184  0.47200290  0.32041207    -0.55400
C366        C  0.82910410  0.47696574  0.35914123     0.08600
C367        C  0.76269957  0.50684614  0.32175999    -0.54900
C368        C  0.76609545  0.51148100  0.36013666     0.09200
H369        H  0.83250533  0.56412454  0.29018598     0.13700
H370        H  0.81137485  0.51956041  0.40472294    -0.00600
H371        H  0.83137619  0.44685557  0.30507599     0.14000
H372        H  0.73450235  0.50603641  0.30799670     0.13800
C373        C  0.18796016  0.51775622  0.30077840     0.85600
C374        C  0.17096350  0.48053394  0.31892745    -0.54700
C375        C  0.16562290  0.48092138  0.35790245     0.08500
C376        C  0.17800598  0.52005329  0.37563652     0.19400
C377        C  0.15788052  0.54779284  0.31446278    -0.55400
C378        C  0.15329919  0.54988253  0.35412827     0.08600
C379        C  0.22474045  0.52692315  0.32299435    -0.54900
C380        C  0.22025913  0.52912399  0.36183681     0.09200
H381        H  0.16095744  0.45669316  0.30181159     0.13700
H382        H  0.17486857  0.52165435  0.40701603    -0.00600
H383        H  0.14043626  0.56461364  0.29478426     0.14000
H384        H  0.25275748  0.53144793  0.30860401     0.13800
C385        C  0.18718478  0.01824543  0.30526706     0.85600
C386        C  0.17003582  0.05063817  0.32893193    -0.54700
C387        C  0.13006729  0.05176711  0.32982981     0.08500
C388        C  0.11084892  0.01877690  0.30717978     0.19400
C389        C  0.16822917  0.98138943  0.32318817    -0.55400
C390        C  0.12840513  0.98173888  0.32611532     0.08600
C391        C  0.16809697  0.02108917  0.26589066    -0.54900
C392        C  0.12891502  0.02271718  0.26593239     0.09200
H393        H  0.18835405  0.07045746  0.34452292     0.13700
H394        H  0.07871604  0.01921918  0.30648199    -0.00600
H395        H  0.18454161  0.95720053  0.33388813     0.14000
H396        H  0.18455155  0.02091048  0.23893132     0.13800
C397        C  0.18356439  0.00630492  0.70159165     0.85600
C398        C  0.16789221  0.97412482  0.67615661    -0.54700
C399        C  0.12897906  0.97574288  0.66725938     0.08500
C400        C  0.11071016  0.01305170  0.68239637     0.19400
C401        C  0.17501386  0.04318181  0.67857147    -0.55400
C402        C  0.13761526  0.04622604  0.66722616     0.08600
C403        C  0.15493237  0.00856197  0.73606453    -0.54900
C404        C  0.11690272  0.01184064  0.72592854     0.09200
H405        H  0.18724353  0.95284557  0.66492903     0.13700
H406        H  0.07978862  0.01732482  0.67714359    -0.00600
H407        H  0.19639681  0.06557800  0.67182416     0.14000
H408        H  0.16370121  0.00848323  0.76603961     0.13800
O409        O  0.73633518  0.63355156  0.96180825    -0.81100
O410        O  0.74457093  0.47692392  0.12254891    -0.82600
O411        O  0.67302704  0.58639580  0.07548873    -0.79600
O412        O  0.79949194  0.59744003  0.07143327    -0.78000
O413        O  0.84504732  0.55710776  0.04873505    -0.79800
O414        O  0.62565247  0.55566484  0.04185736    -0.80700
O415        O  0.74905700  0.54238528  0.12199461    -0.82100
O416        O  0.72823700  0.63280496  0.02715184    -0.82400
Eu417      Eu  0.73735840  0.56718272  0.05429386     2.39200
O418        O  0.77439280  0.51149795  0.05606196    -0.89900
O419        O  0.70062399  0.56637252  0.99742843    -0.93500
C420        C  0.72932856  0.65037720  0.99378711     1.01200
C421        C  0.75122079  0.50893694  0.13912967     1.01000
C422        C  0.63717982  0.57873009  0.06806958     1.01000
C423        C  0.83506448  0.58712644  0.06742402     0.98800
H424        H  0.67945798  0.51310037  0.07708728     0.28600
O425        O  0.69576816  0.51285875  0.05417660    -1.02200
H426        H  0.79489927  0.59030712  0.99968186     0.28600
O427        O  0.77893204  0.56717641  0.00008020    -1.04800
O428        O  0.72702225  0.39047670  0.03646737    -0.82000
O429        O  0.75288801  0.54262814  0.87832169    -0.81600
O430        O  0.62227750  0.47070445  0.04433992    -0.80000
O431        O  0.84556291  0.46436007  0.04712506    -0.83300
O432        O  0.85158600  0.56029938  0.96190498    -0.81200
O433        O  0.63209413  0.55916542  0.94775575    -0.79800
O434        O  0.67419435  0.43583026  0.92018196    -0.81400
O435        O  0.80069614  0.42985410  0.93041811    -0.83300
O436        O  0.62641467  0.46763110  0.95226844    -0.80000
O437        O  0.84746313  0.46865627  0.95560773    -0.82700
O438        O  0.66738184  0.44077233  0.08222346    -0.78400
O439        O  0.68291896  0.58838271  0.91494801    -0.78500
O440        O  0.80753245  0.59186718  0.92501596    -0.78100
O441        O  0.79575833  0.43159287  0.07824257    -0.81600
O442        O  0.72458204  0.39156928  0.97093297    -0.81000
O443        O  0.74799209  0.47708251  0.87959494    -0.79400
Eu444      Eu  0.73320058  0.45716359  0.05661536     2.39800
Eu445      Eu  0.74269591  0.56643961  0.94348626     2.39600
Eu446      Eu  0.65796616  0.51295540  0.99696279     2.38400
Eu447      Eu  0.81654799  0.51154687  0.00247815     2.39900
Eu448      Eu  0.73717661  0.45675812  0.94666880     2.39800
O449        O  0.77939131  0.51072633  0.94616797    -0.93800
O450        O  0.69534304  0.45735011  0.00053331    -0.92700
C451        C  0.72281603  0.37388007  0.00390408     1.01400
C452        C  0.75393290  0.50969999  0.86234051     1.00100
C453        C  0.63200345  0.44840978  0.07286487     0.99500
C454        C  0.83220509  0.43817940  0.07096989     1.01500
C455        C  0.84257377  0.58606623  0.93634372     1.00400
C456        C  0.64646158  0.58219259  0.92103600     0.99300
C457        C  0.63818074  0.44346624  0.92701796     0.99300
C458        C  0.83655825  0.43989346  0.93519807     1.02000
H459        H  0.68576665  0.51255878  0.91901263     0.29300
O460        O  0.70023468  0.51257331  0.94269439    -1.05900
H461        H  0.79003650  0.43344471  0.00350232     0.31400
O462        O  0.77502753  0.45663173  0.00262725    -1.08500
O463        O  0.25124264  0.62597011  0.95873386    -0.81100
O464        O  0.22595831  0.47312283  0.11927278    -0.82600
O465        O  0.17908583  0.58729893  0.06971383    -0.79600
O466        O  0.30234256  0.58277574  0.07609665    -0.78000
O467        O  0.34934085  0.54878149  0.04660900    -0.79800
O468        O  0.13002976  0.55331622  0.04172683    -0.80700
O469        O  0.23655929  0.53774393  0.11687522    -0.82100
O470        O  0.24956814  0.62593324  0.02496974    -0.82400
Eu471      Eu  0.24078611  0.56027447  0.04965429     2.39200
O472        O  0.27810837  0.50490092  0.05252302    -0.89900
O473        O  0.20234859  0.56082285  0.99419800    -0.93500
C474        C  0.25352435  0.64251394  0.99152979     1.01200
C475        C  0.22813876  0.50620075  0.13527410     1.01000
C476        C  0.14285873  0.57991820  0.06415154     1.01000
C477        C  0.33808115  0.57364129  0.07130278     0.98800
H478        H  0.18147829  0.50647555  0.07420718     0.28600
O479        O  0.19893267  0.50598889  0.05219892    -1.02200
H480        H  0.29945751  0.58227231  0.99434599     0.28600
O481        O  0.28174256  0.56041393  0.99492784    -1.04800
O482        O  0.24546913  0.38368640  0.03056156    -0.82000
O483        O  0.23688151  0.53786795  0.87223110    -0.81600
O484        O  0.12720868  0.45918615  0.04132253    -0.80000
O485        O  0.34770692  0.46110741  0.04540930    -0.83300
O486        O  0.35446299  0.54960516  0.95108992    -0.81200
O487        O  0.13096951  0.55200944  0.95167150    -0.79800
O488        O  0.17735857  0.42805423  0.92355677    -0.81400
O489        O  0.30725034  0.43387363  0.91991389    -0.83300
O490        O  0.12924763  0.45964278  0.95510463    -0.80000
O491        O  0.35423642  0.46267645  0.95618704    -0.82700
O492        O  0.17255587  0.42025862  0.06728169    -0.78400
O493        O  0.18024785  0.58451465  0.91898038    -0.78500
O494        O  0.30854919  0.57410191  0.91137501    -0.78100
O495        O  0.29855355  0.43430665  0.08235343    -0.81600
O496        O  0.24502631  0.38405753  0.96457484    -0.81000
O497        O  0.23701309  0.47238525  0.87358925    -0.79400
Eu498      Eu  0.23671421  0.45019438  0.05293409     2.39800
Eu499      Eu  0.24333285  0.55955922  0.93903399     2.39600
Eu500      Eu  0.16062495  0.50651126  0.99719596     2.38400
Eu501      Eu  0.31989166  0.50611033  0.99833527     2.39900
Eu502      Eu  0.24151174  0.45132850  0.94228608     2.39800
O503        O  0.28255872  0.50546306  0.94148462    -0.93800
O504        O  0.19971920  0.45161149  0.99678839    -0.92700
C505        C  0.24796812  0.36677018  0.99772443     1.01400
C506        C  0.23445910  0.50516500  0.85567961     1.00100
C507        C  0.13684758  0.42916372  0.06128730     0.99500
C508        C  0.33477489  0.44000189  0.07398195     1.01500
C509        C  0.34437269  0.56914441  0.92075685     1.00400
C510        C  0.14406600  0.57754246  0.92707532     0.99300
C511        C  0.14135153  0.43432006  0.93138279     0.99300
C512        C  0.34302498  0.44041913  0.92922596     1.02000
H513        H  0.18550626  0.50547184  0.91945925     0.29300
O514        O  0.20178343  0.50557476  0.94191112    -1.05900
H515        H  0.29539312  0.42940020  0.99933451     0.31400
O516        O  0.27891403  0.45143184  0.99865154    -1.08500
C517        C  0.99447682  0.71228511  0.80400187     0.85600
C518        C  0.03015477  0.68732303  0.81316352    -0.54700
C519        C  0.03458646  0.67818558  0.85184596     0.08500
C520        C  0.00277969  0.69604259  0.87745952     0.19400
C521        C  0.95953831  0.69116596  0.82293878    -0.55400
C522        C  0.96372247  0.68183460  0.86089804     0.08600
C523        C  0.00277000  0.74709446  0.82868042    -0.54900
C524        C  0.00682693  0.73933654  0.86687738     0.09200
H525        H  0.05099324  0.67991249  0.79100140     0.13700
H526        H  0.00459965  0.68900697  0.90869310    -0.00600
H527        H  0.93378394  0.68302919  0.80700714     0.14000
H528        H  0.00986120  0.77536434  0.81698800     0.13800
C529        C  0.98770016  0.31015169  0.80840448     0.85600
C530        C  0.95469834  0.33592057  0.82370406    -0.54700
C531        C  0.95608916  0.34418010  0.86272683     0.08500
C532        C  0.99218254  0.32596132  0.88189291     0.19400
C533        C  0.02489832  0.33152379  0.81900619    -0.55400
C534        C  0.02708414  0.34053813  0.85673882     0.08600
C535        C  0.98405711  0.27534846  0.83630034    -0.54900
C536        C  0.98840638  0.28305626  0.87433016     0.09200
H537        H  0.93219994  0.34650573  0.80511452     0.13700
H538        H  0.99534340  0.33008425  0.91300366    -0.00600
H539        H  0.04706011  0.34044852  0.79789676     0.14000
H540        H  0.97700812  0.24662603  0.82701070     0.13800
C541        C  0.49508528  0.70333180  0.79444595     0.85600
C542        C  0.46000538  0.68179863  0.81376403    -0.54700
C543        C  0.46261340  0.64223919  0.81621576     0.08500
C544        C  0.50177772  0.62854407  0.79835531     0.19400
C545        C  0.52837978  0.68956037  0.81982304    -0.55400
C546        C  0.53288218  0.65104156  0.82114698     0.08600
C547        C  0.50124105  0.68458858  0.75561948    -0.54900
C548        C  0.50428851  0.64576178  0.75685121     0.09200
H549        H  0.43656028  0.69721192  0.82727329     0.13700
H550        H  0.50539331  0.59731898  0.79804469    -0.00600
H551        H  0.54496743  0.70797980  0.83854312     0.14000
H552        H  0.50248404  0.70110670  0.72862934     0.13800
C553        C  0.48647284  0.70651758  0.19028399     0.85600
C554        C  0.52076535  0.69676031  0.16357011    -0.54700
C555        C  0.52653557  0.65875502  0.15981081     0.08500
C556        C  0.49599960  0.63302019  0.18026896     0.19400
C557        C  0.45250416  0.68643446  0.16897571    -0.55400
C558        C  0.45687513  0.64748015  0.16449078     0.08600
C559        C  0.49036631  0.68221108  0.22746740    -0.54900
C560        C  0.49672923  0.64412982  0.22281164     0.09200
H561        H  0.53782597  0.71805051  0.14714558     0.13700
H562        H  0.50213106  0.60255342  0.17629528    -0.00600
H563        H  0.42877250  0.70134437  0.15543545     0.14000
H564        H  0.48732323  0.69471327  0.25571361     0.13800
C565        C  0.98201615  0.31039917  0.19672604     0.85600
C566        C  0.01733042  0.32895489  0.17474709    -0.54700
C567        C  0.01355435  0.33195058  0.13507259     0.08500
C568        C  0.97335751  0.31557152  0.12184016     0.19400
C569        C  0.94925288  0.33697050  0.18373147    -0.55400
C570        C  0.94385409  0.33889451  0.14492966     0.08600
C571        C  0.97507091  0.27228280  0.17748780    -0.54900
C572        C  0.96966529  0.27401089  0.13890978     0.09200
H573        H  0.04209450  0.34112028  0.18955930     0.13700
H574        H  0.96810243  0.31684067  0.09046309    -0.00600
H575        H  0.93307715  0.35476908  0.20331445     0.14000
H576        H  0.97547088  0.24525588  0.19366745     0.13800
C577        C  0.99378404  0.69648617  0.20134403     0.85600
C578        C  0.95991730  0.67307316  0.18381516    -0.54700
C579        C  0.96105354  0.67027022  0.14429146     0.08500
C580        C  0.99680416  0.69128084  0.12580077     0.19400
C581        C  0.03007876  0.67652273  0.18609296    -0.55400
C582        C  0.03188355  0.67346304  0.14691746     0.16600
C583        C  0.99152953  0.73473267  0.17882064    -0.54900
C584        C  0.99334955  0.73282374  0.13949883     0.09200
H585        H  0.93558004  0.66113055  0.19980388     0.13700
H586        H  0.99928191  0.69008164  0.09404232    -0.00600
H587        H  0.05161931  0.66391667  0.20496056     0.14000
H588        H  0.98663018  0.76149287  0.19337177     0.13800
C589        C  0.48871829  0.31446189  0.79590291     0.85600
C590        C  0.52598306  0.33003635  0.81565681    -0.54700
C591        C  0.52603701  0.36856030  0.82421342     0.08500
C592        C  0.48895610  0.38812268  0.80895171     0.19400
C593        C  0.45604670  0.32790284  0.82396558    -0.55400
C594        C  0.45551852  0.36672775  0.82985413     0.08600
C595        C  0.48483462  0.33933236  0.75976459    -0.54900
C596        C  0.48501048  0.37735676  0.76593020     0.09200
H597        H  0.54974006  0.31150192  0.82307483     0.13700
H598        H  0.48764970  0.41888576  0.81445614    -0.00600
H599        H  0.43614714  0.30845276  0.83931987     0.14000
H600        H  0.48220437  0.32767658  0.73104621     0.13800
C601        C  0.48519346  0.30551425  0.19087265     0.85600
C602        C  0.45285104  0.32310330  0.16620303    -0.54700
C603        C  0.45121878  0.36245912  0.16645918     0.08500
C604        C  0.48367236  0.38065259  0.19089006     0.19400
C605        C  0.52295094  0.32541705  0.17536920    -0.55400
C606        C  0.52164247  0.36459691  0.17324464     0.08600
C607        C  0.48049787  0.32276779  0.23067752    -0.54900
C608        C  0.47913709  0.36143860  0.23136409     0.09200
H609        H  0.43328284  0.30554940  0.14943324     0.13700
H610        H  0.48309099  0.41221050  0.19254723    -0.00600
H611        H  0.54854138  0.31075842  0.16572357     0.14000
H612        H  0.47893798  0.30542911  0.25713109     0.13800
O613        O  0.56044306  0.41195822  0.44792697    -0.81100
O614        O  0.45712240  0.49582305  0.61575750    -0.82600
O615        O  0.58564755  0.45502880  0.55960638    -0.79600
O616        O  0.47304061  0.38859583  0.53270316    -0.78000
O617        O  0.42255351  0.39968776  0.49197186    -0.79800
O618        O  0.60243714  0.51808597  0.55576642    -0.80700
O619        O  0.49777543  0.44589251  0.60415855    -0.82100
O620        O  0.55714960  0.39974987  0.51264104    -0.82400
Eu621      Eu  0.51621077  0.44733096  0.53704820     2.39200
O622        O  0.45192105  0.46907572  0.53399605    -0.89900
O623        O  0.55641710  0.48500225  0.49606984    -0.93500
C624        C  0.56529814  0.38966181  0.47850535     1.01200
C625        C  0.47681921  0.46614979  0.62647138     1.01000
C626        C  0.61044050  0.48317637  0.56363648     1.01000
C627        C  0.44271912  0.37764554  0.51364415     0.98800
H628        H  0.52483329  0.51181025  0.58304939     0.28600
O629        O  0.51451406  0.51066249  0.55733878    -1.02200
H630        H  0.49266781  0.41595310  0.46517884     0.28600
O631        O  0.49316258  0.44204651  0.47363812    -1.04800
O632        O  0.42312549  0.59989354  0.54045444    -0.82000
O633        O  0.52908465  0.52152718  0.37252804    -0.81600
O634        O  0.54580442  0.58291504  0.57966468    -0.80000
O635        O  0.37181871  0.47011712  0.51278923    -0.83300
O636        O  0.43941270  0.43126549  0.40639251    -0.81200
O637        O  0.61133824  0.54332862  0.47088261    -0.79800
O638        O  0.50931538  0.62701780  0.45971389    -0.81400
O639        O  0.39944793  0.55730114  0.42364479    -0.83300
O640        O  0.56173470  0.61453166  0.49775476    -0.80000
O641        O  0.38574205  0.49349003  0.42527423    -0.82700
O642        O  0.48294414  0.57184516  0.59942050    -0.78400
O643        O  0.59985030  0.49785290  0.42550115    -0.78500
O644        O  0.50209970  0.44210161  0.38603664    -0.78100
O645        O  0.38289458  0.51292017  0.56076644    -0.81600
O646        O  0.42205090  0.61075498  0.47566503    -0.81000
O647        O  0.48666082  0.57011430  0.38392840    -0.79400
Eu648      Eu  0.45026245  0.53331036  0.55397501     2.39800
Eu649      Eu  0.53344295  0.47964514  0.43297756     2.39600
Eu650      Eu  0.55438000  0.54865001  0.51645262     2.38400
Eu651      Eu  0.43006835  0.46495223  0.46978515     2.39900
Eu652      Eu  0.46726043  0.56686089  0.45037909     2.39800
O653        O  0.46998408  0.50338027  0.42937967    -0.93800
O654        O  0.49055592  0.57150876  0.51345679    -0.92700
C655        C  0.41561627  0.62121433  0.51005488     1.01400
C656        C  0.51017127  0.55205787  0.36224115     1.00100
C657        C  0.51685770  0.58654958  0.60380812     0.99500
C658        C  0.36102669  0.48968262  0.54221039     1.01500
C659        C  0.46817476  0.42742556  0.38206141     1.00400
C660        C  0.62152127  0.52238943  0.44208145     0.99300
C661        C  0.54090777  0.63721530  0.47761722     0.99300
C662        C  0.37623020  0.52807414  0.41833419     1.02000
H663        H  0.54764480  0.56036550  0.43574384     0.29300
O664        O  0.53150550  0.54436456  0.45268319    -1.05900
H665        H  0.40132231  0.53745180  0.49108006     0.31400
O666        O  0.42763850  0.52832483  0.49106372    -1.08500
O667        O  0.08322278  0.93764736  0.05247693    -0.81100
O668        O  0.99819173  0.03372821  0.87516821    -0.82600
O669        O  0.04375807  0.91357007  0.93166247    -0.79600
O670        O  0.11033374  0.02493185  0.95978888    -0.78000
O671        O  0.09664058  0.07596444  0.99786329    -0.79800
O672        O  0.98322141  0.89503109  0.95081355    -0.80700
O673        O  0.05173951  0.99829071  0.88910615    -0.82100
O674        O  0.10142775  0.94348485  0.98894441    -0.82400
Eu675      Eu  0.05177724  0.98080929  0.95732628     2.39200
O676        O  0.02774744  0.04404439  0.95694850    -0.89900
O677        O  0.01269901  0.94302159  0.99985812    -0.93500
C678        C  0.10766914  0.93301056  0.02406933     1.01200
C679        C  0.02920916  0.01560194  0.86526651     1.01000
C680        C  0.01543103  0.88838333  0.93415561     1.01000
C681        C  0.11964446  0.05616962  0.97748249     0.98800
H682        H  0.98544926  0.96907069  0.91403554     0.28600
O683        O  0.98617962  0.98055264  0.93913449    -1.02200
H684        H  0.08210874  0.00662278  0.02868097     0.28600
O685        O  0.05575704  0.00604748  0.01965001    -1.04800
O686        O  0.89694663  0.07526531  0.94854414    -0.82000
O687        O  0.97993100  0.97266032  0.12297662    -0.81600
O688        O  0.91667403  0.94291827  0.91572707    -0.80000
O689        O  0.02003689  0.12560711  0.97670432    -0.83300
O690        O  0.06633620  0.06216481  0.08507249    -0.81200
O691        O  0.94940915  0.88621786  0.02768589    -0.79800
O692        O  0.86846774  0.99349364  0.04219636    -0.81400
O693        O  0.94071607  0.09825519  0.06982550    -0.83300
O694        O  0.87949628  0.94314644  0.00240664    -0.80000
O695        O  0.00505663  0.11288991  0.06426981    -0.82700
O696        O  0.92423455  0.00460752  0.89273608    -0.78400
O697        O  0.99878720  0.90157787  0.06732438    -0.78500
O698        O  0.05487085  0.00103433  0.10727691    -0.78100
O699        O  0.98126777  0.10997639  0.92616573    -0.81600
O700        O  0.88182297  0.06886193  0.01265872    -0.81000
O701        O  0.92906211  0.01279094  0.11145458    -0.79400
Eu702      Eu  0.96186947  0.04320586  0.93698035     2.39800
Eu703      Eu  0.01758052  0.96747476  0.06148876     2.39600
Eu704      Eu  0.94701682  0.94305396  0.98174142     2.38400
Eu705      Eu  0.03160050  0.06835732  0.02032739     2.39900
Eu706      Eu  0.92994637  0.03154782  0.04363793     2.39800
O707        O  0.99451867  0.03014162  0.06311495    -0.93800
O708        O  0.92424910  0.00609667  0.98119945    -0.92700
C709        C  0.87507766  0.08185285  0.97864288     1.01400
C710        C  0.94969446  0.99152523  0.13367278     1.00100
C711        C  0.91263400  0.96958447  0.88935597     0.99500
C712        C  0.00044910  0.13443177  0.94604141     1.01500
C713        C  0.06985084  0.03446965  0.11071016     1.00400
C714        C  0.97260997  0.87827943  0.05594407     0.99300
C715        C  0.85761545  0.96308838  0.02428365     0.99300
C716        C  0.97044386  0.12138365  0.07387252     1.02000
H717        H  0.93605689  0.95229740  0.06213421     0.29300
O718        O  0.95160343  0.96775863  0.04416467    -1.05900
H719        H  0.95681654  0.09426684  0.99885548     0.31400
O720        O  0.96695338  0.06849311  0.99930754    -1.08500
C721        C  0.50233445  0.37040317  0.29841584    -0.02800
C722        C  0.47573110  0.38048974  0.26937519     0.06900
C723        C  0.44321495  0.40279620  0.27913535    -0.02900
C724        C  0.43787754  0.41535723  0.31744261    -0.02900
C725        C  0.46459406  0.40505202  0.34628724     0.07000
C726        C  0.49577268  0.38093032  0.33668048    -0.03100
Br727      Br  0.53084082  0.36248695  0.37587055    -0.01600
Br728      Br  0.54978464  0.34403693  0.28556925    -0.01700
Br729      Br  0.39571779  0.44894934  0.32973700    -0.01700
Br730      Br  0.40632145  0.41705338  0.24028893    -0.01600
C731        C  0.51546085  0.42141905  0.71653910    -0.02800
C732        C  0.48161518  0.40454342  0.73292929     0.06900
C733        C  0.44565583  0.40906936  0.71411191    -0.02900
C734        C  0.44287795  0.43457661  0.68232396    -0.02900
C735        C  0.47651022  0.45280942  0.66701008     0.07000
C736        C  0.51267109  0.44692720  0.68492084    -0.03100
Br737      Br  0.55919743  0.47155134  0.66426543    -0.01600
Br738      Br  0.56586132  0.40211106  0.73057998    -0.01700
Br739      Br  0.39371812  0.44188643  0.65751505    -0.01700
Br740      Br  0.40150582  0.37629287  0.72787070    -0.01600
C741        C  0.96175958  0.77080137  0.08335419    -0.02800
C742        C  0.98840571  0.76841413  0.11451581     0.06900
C743        C  0.00635433  0.80266791  0.12640982    -0.02900
C744        C  0.99404405  0.83805276  0.11232607    -0.02900
C745        C  0.97192704  0.84062608  0.07800006     0.07000
C746        C  0.95444925  0.80656670  0.06455761    -0.03100
Br747      Br  0.91734760  0.80858539  0.02331637    -0.01600
Br748      Br  0.93424111  0.72641904  0.06537283    -0.01700
Br749      Br  0.00420036  0.88180707  0.14476039    -0.01700
Br750      Br  0.05131868  0.80260210  0.15909042    -0.01600
C751        C  0.93952165  0.17024557  0.11786122    -0.02800
C752        C  0.96612526  0.16148467  0.08823016     0.06900
C753        C  0.99074983  0.19169757  0.07288169    -0.02900
C754        C  0.98871364  0.22923718  0.08646818    -0.02900
C755        C  0.96369642  0.23749519  0.11739518     0.07000
C756        C  0.93811573  0.20787695  0.13216019    -0.03100
Br757      Br  0.90057555  0.21787006  0.17245317    -0.01600
Br758      Br  0.90800441  0.13003858  0.14241421    -0.01700
Br759      Br  0.02350819  0.26814459  0.06384057    -0.01700
Br760      Br  0.03091443  0.18341485  0.03499716    -0.01600
C761        C  0.49056853  0.57876937  0.25834573    -0.02800
C762        C  0.50527815  0.61722150  0.25618520     0.06900
C763        C  0.52741994  0.63063102  0.28764346    -0.02900
C764        C  0.52884911  0.60903479  0.32205579    -0.02900
C765        C  0.51578191  0.57060011  0.32369637     0.07000
C766        C  0.49846350  0.55502641  0.29091494    -0.03100
Br767      Br  0.48197062  0.50212583  0.29250453    -0.01600
Br768      Br  0.45493503  0.55876211  0.22079075    -0.01700
Br769      Br  0.54350040  0.63494355  0.36838997    -0.01700
Br770      Br  0.55764736  0.67792366  0.28556725    -0.01600
C771        C  0.47957543  0.63403222  0.69124172    -0.02800
C772        C  0.50690807  0.62478663  0.71956919     0.06900
C773        C  0.53943146  0.60297223  0.70869261    -0.02900
C774        C  0.54662377  0.59513894  0.66921456    -0.02900
C775        C  0.52025644  0.60722053  0.64069497     0.07000
C776        C  0.48760932  0.62835752  0.65222975    -0.03100
Br777      Br  0.45233716  0.64909153  0.61473058    -0.01600
Br778      Br  0.42793478  0.64825167  0.70650267    -0.01700
Br779      Br  0.59220989  0.56751285  0.65429472    -0.01700
Br780      Br  0.56941363  0.57708339  0.74730985    -0.01600
C781        C  0.02787512  0.20231764  0.93474273    -0.02800
C782        C  0.99650418  0.17566428  0.93395074     0.06900
C783        C  0.95958653  0.18931428  0.92260296    -0.02900
C784        C  0.95589127  0.22603505  0.90584550    -0.02900
C785        C  0.98792274  0.25134590  0.90403680     0.07000
C786        C  0.02198908  0.24093944  0.92363705    -0.03100
Br787      Br  0.05631796  0.27977567  0.94272236    -0.01600
Br788      Br  0.07983552  0.18625476  0.94664446    -0.01700
Br789      Br  0.90636978  0.24259690  0.88647239    -0.01700
Br790      Br  0.91291027  0.15954615  0.93135049    -0.01600
C791        C  0.98602827  0.78474197  0.91563484    -0.02800
C792        C  0.01618283  0.77146100  0.89285339     0.06900
C793        C  0.04925728  0.79559908  0.88588657    -0.02900
C794        C  0.05130997  0.83261779  0.90190895    -0.02900
C795        C  0.01735596  0.84841922  0.91844814     0.07000
C796        C  0.98346836  0.82393288  0.92189697    -0.03100
Br797      Br  0.93055473  0.84232028  0.92498387    -0.01600
Br798      Br  0.94664119  0.74987881  0.93616209    -0.01700
Br799      Br  0.10007915  0.86066864  0.89912060    -0.01700
Br800      Br  0.09129837  0.77817013  0.85363537    -0.01600
C801        C  0.09398530  0.35019428  0.88143125    -0.02800
C802        C  0.05834711  0.36572329  0.87083076     0.06900
C803        C  0.05250191  0.40529381  0.87384041    -0.02900
C804        C  0.07884782  0.42778962  0.89470439    -0.02900
C805        C  0.11228446  0.41078930  0.91082452     0.07000
C806        C  0.11998290  0.37180391  0.90334487    -0.03100
Br807      Br  0.16423915  0.34601934  0.92500882    -0.01600
Br808      Br  0.10879327  0.30093593  0.86213666    -0.01700
Br809      Br  0.06917133  0.48188910  0.89927125    -0.01700
Br810      Br  0.01028449  0.42904876  0.84635370    -0.01600
C811        C  0.11282177  0.37479726  0.10694362    -0.02800
C812        C  0.10492549  0.40270564  0.07768851     0.06900
C813        C  0.06646193  0.40307244  0.06277111    -0.02900
C814        C  0.03624851  0.38003323  0.08018883    -0.02900
C815        C  0.04453269  0.35276870  0.11001669     0.07000
C816        C  0.08409362  0.34762916  0.11879047    -0.03100
Br817      Br  0.10068315  0.29940376  0.14026534    -0.01600
Br818      Br  0.16097674  0.37446964  0.13528097    -0.01700
Br819      Br  0.98454044  0.38660342  0.06084912    -0.01700
Br820      Br  0.05393985  0.43367883  0.01727037    -0.01600
C821        C  0.08697668  0.58645107  0.11138539    -0.02800
C822        C  0.11459818  0.60380972  0.08572067     0.06900
C823        C  0.11743363  0.64438931  0.08360297    -0.02900
C824        C  0.08992201  0.66693344  0.10281104    -0.02900
C825        C  0.06163908  0.64957259  0.12742365     0.07000
C826        C  0.06147717  0.60924876  0.13304312    -0.03100
Br827      Br  0.02521395  0.58478446  0.16925320    -0.01600
Br828      Br  0.08599947  0.53149382  0.11921803    -0.01700
Br829      Br  0.09176500  0.72196860  0.09643376    -0.01700
Br830      Br  0.15980549  0.66991292  0.05585283    -0.01600
C831        C  0.10708865  0.59683756  0.86844568    -0.02800
C832        C  0.11571410  0.60188743  0.90740237     0.06900
C833        C  0.09971591  0.63243121  0.92699089    -0.02900
C834        C  0.07959104  0.66075893  0.90669821    -0.02900
C835        C  0.06654665  0.65409965  0.86854970     0.07000
C836        C  0.08039005  0.62091993  0.84976179    -0.03100
Br837      Br  0.06081590  0.60385266  0.80106819    -0.01600
Br838      Br  0.13005879  0.55506576  0.84179967    -0.01700
Br839      Br  0.07631415  0.70961549  0.93122130    -0.01700
Br840      Br  0.10326433  0.63432571  0.98222760    -0.01600
C841        C  0.42286562  0.37470389  0.89544225    -0.02800
C842        C  0.42732655  0.38657674  0.85612519     0.06900
C843        C  0.40647133  0.41929853  0.84315550    -0.02900
C844        C  0.37832277  0.43576618  0.86705268    -0.02900
C845        C  0.37335439  0.42287934  0.90535843     0.07000
C846        C  0.39755343  0.39425484  0.92033428    -0.03100
Br847      Br  0.39674294  0.38284087  0.97518018    -0.01600
Br848      Br  0.45263310  0.33321517  0.91668521    -0.01700
Br849      Br  0.34773101  0.47823932  0.84831944    -0.01700
Br850      Br  0.41606950  0.44484316  0.79422889    -0.01600
C851        C  0.41307837  0.57017915  0.89051241    -0.02800
C852        C  0.37553850  0.58639305  0.89401625     0.06900
C853        C  0.36674883  0.61747502  0.86878725    -0.02900
C854        C  0.39318132  0.62973317  0.83955164    -0.02900
C855        C  0.43237393  0.61794518  0.83927475     0.07000
C856        C  0.44149608  0.58624215  0.86425706    -0.03100
Br857      Br  0.49140694  0.56172700  0.86317054    -0.01600
Br858      Br  0.42653705  0.52504637  0.92086947    -0.01700
Br859      Br  0.37227625  0.65712100  0.79593726    -0.01700
Br860      Br  0.31995679  0.64700478  0.87501710    -0.01600
C861        C  0.40782029  0.59255133  0.08496422    -0.02800
C862        C  0.36812665  0.59226026  0.09627065     0.06900
C863        C  0.35855937  0.60671275  0.13336893    -0.02900
C864        C  0.38770950  0.62391281  0.15609788    -0.02900
C865        C  0.42705474  0.62334268  0.14434142     0.07000
C866        C  0.43656358  0.60219211  0.11150552    -0.03100
Br867      Br  0.48312828  0.57297449  0.10903261    -0.01600
Br868      Br  0.42497862  0.58211912  0.03286518    -0.01700
Br869      Br  0.37481119  0.64279821  0.20656655    -0.01700
Br870      Br  0.30669084  0.60194606  0.15534718    -0.01600
C871        C  0.35560205  0.38533082  0.11708194    -0.02800
C872        C  0.36364509  0.42129578  0.09921173     0.06900
C873        C  0.39932637  0.43992657  0.10668195    -0.02900
C874        C  0.42906194  0.42029278  0.12573747    -0.02900
C875        C  0.42082828  0.38454919  0.14485115     0.07000
C876        C  0.38229000  0.36965083  0.14301160    -0.03100
Br877      Br  0.36224825  0.33249627  0.18012500    -0.01600
Br878      Br  0.30899947  0.35582727  0.10593384    -0.01700
Br879      Br  0.48013104  0.44354523  0.12166404    -0.01700
Br880      Br  0.40660489  0.49384444  0.09495797    -0.01600
C881        C  0.57019960  0.41930367  0.16084764    -0.02800
C882        C  0.54911781  0.38739412  0.14719292     0.06900
C883        C  0.55158710  0.37926963  0.10716917    -0.02900
C884        C  0.57758002  0.40016704  0.08250540    -0.02900
C885        C  0.60057806  0.43003244  0.09703446     0.07000
C886        C  0.59451348  0.44133004  0.13537911    -0.03100
Br887      Br  0.61509649  0.49008648  0.15085084    -0.01600
Br888      Br  0.56623332  0.43296024  0.21430217    -0.01700
Br889      Br  0.58018641  0.38952525  0.02815196    -0.01700
Br890      Br  0.51659491  0.34258151  0.08445298    -0.01600
C891        C  0.61624707  0.60579549  0.13113520    -0.02800
C892        C  0.60792216  0.59802626  0.09205453     0.06900
C893        C  0.57271562  0.61104902  0.07615791    -0.02900
C894        C  0.55056171  0.63759611  0.09622149    -0.02900
C895        C  0.55739339  0.64299101  0.13556892     0.07000
C896        C  0.58994519  0.62666838  0.15310563    -0.03100
Br897      Br  0.59875437  0.63269092  0.20733238    -0.01600
Br898      Br  0.66107974  0.58456594  0.15689471    -0.01700
Br899      Br  0.50966237  0.66495786  0.07032054    -0.01700
Br900      Br  0.54896844  0.58646842  0.03283246    -0.01600
C901        C  0.60006786  0.62762345  0.83184619    -0.02800
C902        C  0.56251965  0.63414781  0.84648319     0.06900
C903        C  0.55631820  0.63242226  0.88677176    -0.02900
C904        C  0.58619571  0.61984495  0.91088478    -0.02900
C905        C  0.61933488  0.60288897  0.89515055     0.07000
C906        C  0.62732880  0.60883468  0.85516428    -0.03100
Br907      Br  0.67562763  0.59387504  0.83163395    -0.01600
Br908      Br  0.61676323  0.65178961  0.78356817    -0.01700
Br909      Br  0.58826646  0.63769838  0.96264152    -0.01700
Br910      Br  0.50884663  0.65090143  0.90950364    -0.01600
C911        C  0.56457680  0.42812133  0.84760430    -0.02800
C912        C  0.55530298  0.38797088  0.85091633     0.06900
C913        C  0.57262157  0.36721992  0.88229586    -0.02900
C914        C  0.60134487  0.38469103  0.90537632    -0.02900
C915        C  0.60843033  0.42443298  0.90266223     0.07000
C916        C  0.58805433  0.44619771  0.87530707    -0.03100
Br917      Br  0.59263599  0.50151642  0.87579452    -0.01600
Br918      Br  0.54979392  0.46043216  0.80448254    -0.01700
Br919      Br  0.62996954  0.35430092  0.94227352    -0.01700
Br920      Br  0.55466213  0.31667670  0.89915754    -0.01600
C921        C  0.88263945  0.34864377  0.10787960    -0.02800
C922        C  0.91471854  0.36442414  0.12709905     0.06900
C923        C  0.91920213  0.40459017  0.12902471    -0.02900
C924        C  0.89300867  0.42872543  0.10974538    -0.02900
C925        C  0.86053682  0.41298536  0.09066774     0.07000
C926        C  0.85526172  0.37269375  0.09033545    -0.03100
Br927      Br  0.81153164  0.34959111  0.06449077    -0.01600
Br928      Br  0.87532247  0.29387846  0.10653738    -0.01700
Br929      Br  0.90219059  0.48330933  0.10992293    -0.01700
Br930      Br  0.96235967  0.42681943  0.15658371    -0.01600
C931        C  0.90365709  0.41107087  0.93490919    -0.02800
C932        C  0.86729096  0.41588024  0.91702362     0.06900
C933        C  0.85975213  0.39524911  0.88318681    -0.02900
C934        C  0.88643306  0.36816053  0.86989678    -0.02900
C935        C  0.92537349  0.36776105  0.88351028     0.07000
C936        C  0.93346349  0.39035146  0.91667878    -0.03100
Br937      Br  0.98419193  0.39647937  0.93918548    -0.01600
Br938      Br  0.91245881  0.42994917  0.98648824    -0.01700
Br939      Br  0.86522208  0.32757708  0.83888715    -0.01700
Br940      Br  0.81384582  0.40457877  0.85278070    -0.01600
C941        C  0.91189205  0.59638077  0.91208365    -0.02800
C942        C  0.87439462  0.61104505  0.91903844     0.06900
C943        C  0.86732199  0.64982056  0.90856956    -0.02900
C944        C  0.89573670  0.67205232  0.88814951    -0.02900
C945        C  0.93359276  0.65798184  0.88259890     0.07000
C946        C  0.94142182  0.62005342  0.89515945    -0.03100
Br947      Br  0.99145787  0.59817983  0.88644426    -0.01600
Br948      Br  0.92324149  0.54305776  0.92331118    -0.01700
Br949      Br  0.88165294  0.72135813  0.86641682    -0.01700
Br950      Br  0.82027038  0.67458143  0.92500015    -0.01600
C951        C  0.93646831  0.62694038  0.09097356    -0.02800
C952        C  0.92880412  0.65118310  0.12232009     0.06900
C953        C  0.88949815  0.65785255  0.13247895    -0.02900
C954        C  0.85909143  0.63608463  0.11631568    -0.02900
C955        C  0.86680072  0.61089064  0.08542575     0.07000
C956        C  0.90577859  0.60854853  0.07167293    -0.03100
Br957      Br  0.91878073  0.58197342  0.02475585    -0.01600
Br958      Br  0.98860763  0.61760364  0.07281775    -0.01700
Br959      Br  0.80793409  0.64033807  0.13980949    -0.01700
Br960      Br  0.87606139  0.70025548  0.16511948    -0.01600
C961        C  0.07819166  0.97701209  0.77684182    -0.02800
C962        C  0.08479660  0.01082142  0.75507091     0.06900
C963        C  0.06229495  0.04321747  0.76316828    -0.02900
C964        C  0.04015052  0.04421091  0.79776897    -0.02900
C965        C  0.04062810  0.01259106  0.82388773     0.07000
C966        C  0.05648578  0.97780856  0.81121419    -0.03100
Br967      Br  0.04859586  0.93058178  0.84026992    -0.01600
Br968      Br  0.09743426  0.92917665  0.75849869    -0.01700
Br969      Br  0.01032785  0.08894112  0.80914770    -0.01700
Br970      Br  0.06054337  0.08557357  0.72702211    -0.01600
C971        C  0.08451329  0.06709538  0.17434983    -0.02800
C972        C  0.09179891  0.03798888  0.14766157     0.06900
C973        C  0.11158037  0.00495621  0.16082008    -0.02900
C974        C  0.11812598  0.99819000  0.20021327    -0.02900
C975        C  0.10941315  0.02621700  0.22749893     0.07000
C976        C  0.09313259  0.06114307  0.21416797    -0.03100
Br977      Br  0.08249636  0.10085229  0.25015012    -0.01600
Br978      Br  0.06476873  0.11556180  0.15611711    -0.01700
Br979      Br  0.13992507  0.94977171  0.21672431    -0.01700
Br980      Br  0.13124373  0.96845238  0.12459030    -0.01600
C981        C  0.21953442  0.48257597  0.24351797    -0.02800
C982        C  0.19853877  0.51467090  0.25735164     0.06900
C983        C  0.19513491  0.54623356  0.23137334    -0.02900
C984        C  0.20112519  0.54217145  0.19162860    -0.02900
C985        C  0.21887030  0.50898305  0.17730983     0.07000
C986        C  0.22980602  0.48006584  0.20395451    -0.03100
Br987      Br  0.26282690  0.43901577  0.18730880    -0.01600
Br988      Br  0.24054077  0.44433515  0.27857242    -0.01700
Br989      Br  0.18504437  0.58416494  0.15837436    -0.01700
Br990      Br  0.19727516  0.59793221  0.24874300    -0.01600
C991        C  0.30529463  0.50689911  0.42242693    -0.02800
C992        C  0.33449078  0.53301917  0.40710014     0.06900
C993        C  0.32219236  0.56406612  0.38359544    -0.02900
C994        C  0.28262799  0.56652340  0.37308157    -0.02900
C995        C  0.25490916  0.53844690  0.38612198     0.07000
C996        C  0.26582601  0.51271279  0.41532826    -0.03100
Br997      Br  0.22765752  0.48873674  0.44977085    -0.01600
Br998      Br  0.31608172  0.45991593  0.45066551    -0.01700
Br999      Br  0.26536104  0.61003062  0.34309947    -0.01700
Br1000     Br  0.35936780  0.60078742  0.36175857    -0.01600
C1001       C  0.76182030  0.47504191  0.24418379    -0.02800
C1002       C  0.79383941  0.49776421  0.25634146     0.06900
C1003       C  0.81687878  0.51581347  0.22718300    -0.02900
C1004       C  0.80202870  0.52083770  0.18965431    -0.02900
C1005       C  0.76502752  0.50592212  0.17993804     0.07000
C1006       C  0.74615708  0.48084966  0.20708435    -0.03100
Br1007     Br  0.69871850  0.45418285  0.19427915    -0.01600
Br1008     Br  0.74253034  0.43245008  0.27610911    -0.01700
Br1009     Br  0.83506966  0.54376145  0.15074688    -0.01700
Br1010     Br  0.87188805  0.52343820  0.23532175    -0.01600
C1011       C  0.70424347  0.54614967  0.37354178    -0.02800
C1012       C  0.73077657  0.51712237  0.38394167     0.06900
C1013       C  0.71996829  0.48967794  0.41254520    -0.02900
C1014       C  0.68660107  0.49494791  0.43534833    -0.02900
C1015       C  0.66105577  0.52485679  0.42617491     0.07000
C1016       C  0.66854117  0.54817212  0.39318087    -0.03100
Br1017     Br  0.62700850  0.57587085  0.36921584    -0.01600
Br1018     Br  0.71455893  0.58173304  0.33054706    -0.01700
Br1019     Br  0.67232263  0.45699468  0.47469087    -0.01700
Br1020     Br  0.74355243  0.44004157  0.41275125    -0.01600
C1021       C  0.85469465  0.00262987  0.80951516    -0.02800
C1022       C  0.87124440  0.98683664  0.77595093     0.06900
C1023       C  0.90025015  0.95880432  0.78169911    -0.02900
C1024       C  0.91106467  0.94753075  0.81999748    -0.02900
C1025       C  0.89194149  0.96260734  0.85255238     0.07000
C1026       C  0.86056985  0.98645628  0.84619295    -0.03100
Br1027     Br  0.82714437  0.99826091  0.88919614    -0.01600
Br1028     Br  0.83273569  0.05236351  0.80720033    -0.01700
Br1029     Br  0.94948229  0.90914189  0.82839851    -0.01700
Br1030     Br  0.92812438  0.93840492  0.73858619    -0.01600
C1031       C  0.92517947  0.02612961  0.23295278    -0.02800
C1032       C  0.89284604  0.00189579  0.24257263     0.06900
C1033       C  0.88689552  0.96865251  0.22038510    -0.02900
C1034       C  0.90972993  0.96245428  0.18719976    -0.02900
C1035       C  0.93703124  0.99022446  0.17443508     0.07000
C1036       C  0.94529930  0.02161823  0.19773439    -0.03100
Br1037     Br  0.98197273  0.06020366  0.17933714    -0.01600
Br1038     Br  0.94356567  0.06508690  0.26683319    -0.01700
Br1039     Br  0.90232332  0.91697214  0.15769728    -0.01700
Br1040     Br  0.84787811  0.93076180  0.23464009    -0.01600
C1041       C  0.24587607  0.52987533  0.78733943    -0.02800
C1042       C  0.22491430  0.50582502  0.81375294     0.06900
C1043       C  0.19003495  0.48833602  0.80150645    -0.02900
C1044       C  0.17561495  0.49597339  0.76432173    -0.02900
C1045       C  0.19964632  0.51456408  0.73583362     0.07000
C1046       C  0.23309242  0.53475670  0.74892097    -0.03100
Br1047     Br  0.25901343  0.57325455  0.71631040    -0.01600
Br1048     Br  0.29319345  0.55519633  0.80319722    -0.01700
Br1049     Br  0.11963314  0.49274059  0.75845292    -0.01700
Br1050     Br  0.15966232  0.45573208  0.83608917    -0.01600
C1051       C  0.30720320  0.45795700  0.58039847    -0.02800
C1052       C  0.32017653  0.48749759  0.55520689     0.06900
C1053       C  0.29574346  0.51835257  0.54707679    -0.02900
C1054       C  0.25961549  0.52080203  0.56614537    -0.02900
C1055       C  0.25095942  0.49645834  0.59854758     0.07000
C1056       C  0.27408325  0.46338753  0.60393475    -0.03100
Br1057     Br  0.26088247  0.42458691  0.64236444    -0.01600
Br1058     Br  0.33468298  0.41026116  0.58154543    -0.01700
Br1059     Br  0.22255458  0.55539060  0.54445672    -0.01700
Br1060     Br  0.31245285  0.55803281  0.51048591    -0.01600
C1061       C  0.74171109  0.51381147  0.75536808    -0.02800
C1062       C  0.78053576  0.51029774  0.74144506     0.06900
C1063       C  0.81095728  0.51429031  0.76855581    -0.02900
C1064       C  0.80202511  0.51521084  0.80834852    -0.02900
C1065       C  0.76336033  0.50951270  0.82116707     0.07000
C1066       C  0.73333660  0.50740668  0.79448918    -0.03100
Br1067     Br  0.68068182  0.49548502  0.81098104    -0.01600
Br1068     Br  0.70302893  0.54200698  0.72677423    -0.01700
Br1069     Br  0.84257152  0.52293856  0.84561596    -0.01700
Br1070     Br  0.86451650  0.52123615  0.75210356    -0.01600
C1071       C  0.69712987  0.44696663  0.62208709    -0.02800
C1072       C  0.72658145  0.47459519  0.61170005     0.06900
C1073       C  0.71959895  0.49995475  0.58053568    -0.02900
C1074       C  0.68210732  0.50262047  0.56501860    -0.02900
C1075       C  0.65143128  0.47670192  0.57717580     0.07000
C1076       C  0.66072793  0.44668147  0.60338448    -0.03100
Br1077     Br  0.62394513  0.40546369  0.61531734    -0.01600
Br1078     Br  0.70506557  0.40985977  0.66317588    -0.01700
Br1079     Br  0.67492698  0.54397593  0.52772663    -0.01700
Br1080     Br  0.76016415  0.53380353  0.55983978    -0.01600
C1081       C  0.95156864  0.28860392  0.30358721    -0.02800
C1082       C  0.98821020  0.28277416  0.32173202     0.06900
C1083       C  0.02219961  0.28441720  0.29795169    -0.02900
C1084       C  0.01939313  0.29052845  0.25778521    -0.02900
C1085       C  0.98426904  0.30267017  0.24076857     0.07000
C1086       C  0.94968077  0.29730864  0.26362741    -0.03100
Br1087     Br  0.89829205  0.29433850  0.24066504    -0.01600
Br1088     Br  0.90197906  0.28566022  0.33166403    -0.01700
Br1089     Br  0.06123774  0.27108183  0.22669091    -0.01700
Br1090     Br  0.07414768  0.27763191  0.31804872    -0.01600
C1091       C  0.00560957  0.25343106  0.71420121    -0.02800
C1092       C  0.99342713  0.27903770  0.68531253     0.06900
C1093       C  0.98308103  0.31627187  0.69576781    -0.02900
C1094       C  0.98034521  0.32654201  0.73500462    -0.02900
C1095       C  0.98924913  0.29950608  0.76498402     0.07000
C1096       C  0.00704248  0.26471339  0.75303087    -0.03100
Br1097     Br  0.04182716  0.23562178  0.78577165    -0.01600
Br1098     Br  0.02132430  0.20285043  0.70044219    -0.01700
Br1099     Br  0.97013751  0.37971224  0.74533984    -0.01700
Br1100     Br  0.97716773  0.35466335  0.65570950    -0.01600
C1101       C  0.90618725  0.40060543  0.37871733    -0.02800
C1102       C  0.89663429  0.38776084  0.41631665     0.06900
C1103       C  0.86840306  0.40704644  0.43755285    -0.02900
C1104       C  0.84965934  0.43930787  0.42151202    -0.02900
C1105       C  0.85556923  0.44993238  0.38166168     0.07000
C1106       C  0.88687090  0.43196861  0.36185764    -0.03100
Br1107     Br  0.90909263  0.45312161  0.31415251    -0.01600
Br1108     Br  0.94633035  0.37521158  0.35019778    -0.01700
Br1109     Br  0.82277879  0.47028140  0.45829969    -0.01700
Br1110     Br  0.85491755  0.38799210  0.48902907    -0.01600
C1111       C  0.89099672  0.44391138  0.62915511    -0.02800
C1112       C  0.85362807  0.43263252  0.64195801     0.06900
C1113       C  0.84311880  0.39370546  0.64191443    -0.02900
C1114       C  0.86743471  0.36722654  0.62404955    -0.02900
C1115       C  0.90039544  0.38051927  0.60161251     0.07000
C1116       C  0.91332651  0.41905920  0.60665596    -0.03100
Br1117     Br  0.96260841  0.43840760  0.58623951    -0.01600
Br1118     Br  0.91295053  0.49166238  0.64675527    -0.01700
Br1119     Br  0.85596258  0.31342789  0.63532234    -0.01700
Br1120     Br  0.79661203  0.37612770  0.66863846    -0.01600
C1121       C  0.10716155  0.38267027  0.62196490    -0.02800
C1122       C  0.08862865  0.38950551  0.58646471     0.06900
C1123       C  0.09294763  0.42574867  0.56802006    -0.02900
C1124       C  0.11102123  0.45605940  0.58712688    -0.02900
C1125       C  0.13246772  0.44883785  0.62144798     0.07000
C1126       C  0.13234054  0.41058435  0.63682352    -0.03100
Br1127     Br  0.16944916  0.39252447  0.67436929    -0.01600
Br1128     Br  0.09708868  0.33603929  0.65216889    -0.01700
Br1129     Br  0.10174857  0.50640183  0.56524477    -0.01700
Br1130     Br  0.07684277  0.43430361  0.51505668    -0.01600
C1131       C  0.07695344  0.42222144  0.39456523    -0.02800
C1132       C  0.09402039  0.39271600  0.41677391     0.06900
C1133       C  0.13514804  0.39123203  0.41785573    -0.02900
C1134       C  0.15850028  0.41904288  0.39760729    -0.02900
C1135       C  0.14125551  0.44999630  0.37779288     0.07000
C1136       C  0.10032017  0.44968156  0.37407377    -0.03100
Br1137     Br  0.07580135  0.48618732  0.33976211    -0.01600
Br1138     Br  0.02135008  0.42508845  0.39144229    -0.01700
Br1139     Br  0.21367317  0.41157624  0.39233940    -0.01700
Br1140     Br  0.15993056  0.35208401  0.44850035    -0.01600
C1141       C  0.09824911  0.09819049  0.57975459    -0.02800
C1142       C  0.09150416  0.13516957  0.59454546     0.06900
C1143       C  0.10880595  0.14471985  0.63046691    -0.02900
C1144       C  0.12497924  0.11583928  0.65393993    -0.02900
C1145       C  0.12535333  0.07788897  0.64130025     0.07000
C1146       C  0.11725497  0.07060419  0.60252826    -0.03100
Br1147     Br  0.13848406  0.02562078  0.57908640    -0.01600
Br1148     Br  0.08451569  0.08481723  0.52769775    -0.01700
Br1149     Br  0.14874938  0.12881337  0.70250107    -0.01700
Br1150     Br  0.11271620  0.19671236  0.64872674    -0.01600
C1151       C  0.87180581  0.11695023  0.59967716    -0.02800
C1152       C  0.91043947  0.12758857  0.60694365     0.06900
C1153       C  0.92968992  0.11005686  0.63818411    -0.02900
C1154       C  0.91009505  0.08271201  0.66275811    -0.02900
C1155       C  0.87180189  0.06972693  0.65418102     0.07000
C1156       C  0.85343798  0.08672500  0.62103472    -0.03100
Br1157     Br  0.80547319  0.06679196  0.59945069    -0.01600
Br1158     Br  0.84388605  0.14431507  0.55984331    -0.01700
Br1159     Br  0.93563819  0.06603192  0.70933853    -0.01700
Br1160     Br  0.98295754  0.12452917  0.64757613    -0.01600
C1161       C  0.90957565  0.13846912  0.36525222    -0.02800
C1162       C  0.91109221  0.13174889  0.40569576     0.06900
C1163       C  0.89091516  0.09938791  0.42194449    -0.02900
C1164       C  0.86983300  0.07443591  0.39795704    -0.02900
C1165       C  0.87036097  0.08042316  0.35741995     0.07000
C1166       C  0.88747953  0.11415817  0.34179764    -0.03100
Br1167     Br  0.87589075  0.12982331  0.28947799    -0.01600
Br1168     Br  0.94033539  0.17902527  0.34074622    -0.01700
Br1169     Br  0.83883074  0.03294870  0.42096778    -0.01700
Br1170     Br  0.89090585  0.08926493  0.47705516    -0.01600
C1171       C  0.10626917  0.14803164  0.37435818    -0.02800
C1172       C  0.07397118  0.13839215  0.39887848     0.06900
C1173       C  0.05746634  0.10101655  0.39708631    -0.02900
C1174       C  0.07544453  0.07273433  0.37506693    -0.02900
C1175       C  0.10845193  0.08194762  0.35143444     0.07000
C1176       C  0.12183657  0.12061472  0.34954244    -0.03100
Br1177     Br  0.15963592  0.13799535  0.31083762    -0.01600
Br1178     Br  0.13171952  0.19809072  0.37469566    -0.01700
Br1179     Br  0.05390459  0.02155132  0.38026022    -0.01700
Br1180     Br  0.00853327  0.08765702  0.42286431    -0.01600
C1181       C  0.01772407  0.74796565  0.29587726    -0.02800
C1182       C  0.98542820  0.73808546  0.31988099     0.06900
C1183       C  0.95791393  0.71114141  0.30609271    -0.02900
C1184       C  0.96499439  0.69146903  0.27165262    -0.02900
C1185       C  0.99455766  0.70439593  0.24544113     0.07000
C1186       C  0.02283800  0.73061984  0.25978972    -0.03100
Br1187     Br  0.07136878  0.74071139  0.23252636    -0.01600
Br1188     Br  0.05384851  0.78809368  0.31036959    -0.01700
Br1189     Br  0.94390596  0.64001520  0.26984260    -0.01700
Br1190     Br  0.90883462  0.70116771  0.33214849    -0.01600
C1191       C  0.98389780  0.76699015  0.70677954    -0.02800
C1192       C  0.98546350  0.73696302  0.68086836     0.06900
C1193       C  0.98378416  0.69889508  0.69450879    -0.02900
C1194       C  0.98567974  0.69065941  0.73431402    -0.02900
C1195       C  0.98732413  0.72100809  0.76096728     0.07000
C1196       C  0.97992420  0.75874795  0.74640801    -0.03100
Br1197     Br  0.95100891  0.79576317  0.77552467    -0.01600
Br1198     Br  0.98673006  0.81945649  0.68796851    -0.01700
Br1199     Br  0.98169337  0.63764175  0.75112495    -0.01700
Br1200     Br  0.97799953  0.65830635  0.65821542    -0.01600
C1201       C  0.09818856  0.64217280  0.37520257    -0.02800
C1202       C  0.08073258  0.63424551  0.41149904     0.06900
C1203       C  0.08712361  0.59819961  0.42950377    -0.02900
C1204       C  0.10723299  0.56952101  0.40973466    -0.02900
C1205       C  0.12770028  0.57851616  0.37443321     0.07000
C1206       C  0.12488126  0.61659435  0.35964569    -0.03100
Br1207     Br  0.16313327  0.63887324  0.32507656    -0.01600
Br1208     Br  0.08527814  0.68744337  0.34514568    -0.01700
Br1209     Br  0.10357100  0.51881840  0.43289418    -0.01700
Br1210     Br  0.07150402  0.58817487  0.48278658    -0.01600
C1211       C  0.09674985  0.57429922  0.62518354    -0.02800
C1212       C  0.13757172  0.57886741  0.62084538     0.06900
C1213       C  0.15237136  0.60976056  0.59813357    -0.02900
C1214       C  0.12721235  0.63181585  0.57529078    -0.02900
C1215       C  0.08658563  0.62831984  0.58029146     0.07000
C1216       C  0.07141687  0.59810270  0.60400657    -0.03100
Br1217     Br  0.01653250  0.58618581  0.60419212    -0.01600
Br1218     Br  0.07513206  0.53604644  0.66080839    -0.01700
Br1219     Br  0.14802138  0.65946441  0.53081807    -0.01700
Br1220     Br  0.20546665  0.62683613  0.60391700    -0.01600
C1221       C  0.85388892  0.63032092  0.60942577    -0.02800
C1222       C  0.88237832  0.62397472  0.58028845     0.06900
C1223       C  0.88338064  0.58659983  0.56453500    -0.02900
C1224       C  0.86176850  0.55549929  0.58184320    -0.02900
C1225       C  0.83516305  0.56170396  0.61291562     0.07000
C1226       C  0.82816571  0.60047314  0.62196228    -0.03100
Br1227     Br  0.77917349  0.61445841  0.64554579    -0.01600
Br1228     Br  0.84944654  0.67884750  0.63495639    -0.01700
Br1229     Br  0.86867178  0.50598421  0.55929704    -0.01700
Br1230     Br  0.91157277  0.57718291  0.51680466    -0.01600
C1231       C  0.91058255  0.61172143  0.38234308    -0.02800
C1232       C  0.89168498  0.63517337  0.40895120     0.06900
C1233       C  0.85139528  0.63109458  0.41500753    -0.02900
C1234       C  0.83015805  0.60280369  0.39550478    -0.02900
C1235       C  0.84864928  0.57925809  0.36812887     0.07000
C1236       C  0.88912942  0.58437906  0.36159338    -0.03100
Br1237     Br  0.91637777  0.55251289  0.32620505    -0.01600
Br1238     Br  0.96605498  0.61764944  0.37400998    -0.01700
Br1239     Br  0.77595807  0.59719188  0.40805747    -0.01700
Br1240     Br  0.82558396  0.66331193  0.45184117    -0.01600
C1241       C  0.11569122  0.94863808  0.39181094    -0.02800
C1242       C  0.10665510  0.95250796  0.35189369     0.06900
C1243       C  0.07625844  0.92921192  0.33767918    -0.02900
C1244       C  0.05744650  0.90099210  0.36192091    -0.02900
C1245       C  0.06946790  0.89462487  0.40044852     0.07000
C1246       C  0.09737370  0.91996537  0.41567677    -0.03100
Br1247     Br  0.10947760  0.91623408  0.46999882    -0.01600
Br1248     Br  0.14962128  0.98544478  0.41569074    -0.01700
Br1249     Br  0.01214748  0.87400217  0.34377903    -0.01700
Br1250     Br  0.05992696  0.93602273  0.28505969    -0.01600
C1251       C  0.87117985  0.88351606  0.38465272    -0.02800
C1252       C  0.90475480  0.89084269  0.40667092     0.06900
C1253       C  0.92289796  0.92743154  0.40386550    -0.02900
C1254       C  0.90570706  0.95734478  0.38258130    -0.02900
C1255       C  0.87203749  0.95018800  0.35978354     0.07000
C1256       C  0.85683403  0.91189887  0.35948294    -0.03100
Br1257     Br  0.81930163  0.89448270  0.32212880    -0.01600
Br1258     Br  0.84296674  0.83471775  0.38854939    -0.01700
Br1259     Br  0.93034361  0.00712663  0.38809010    -0.01700
Br1260     Br  0.97331561  0.93714862  0.42692969    -0.01600
C1261       C  0.89664243  0.92000939  0.58806267    -0.02800
C1262       C  0.89908792  0.88149248  0.60181581     0.06900
C1263       C  0.88361355  0.87215485  0.63935139    -0.02900
C1264       C  0.86687863  0.90077283  0.66223764    -0.02900
C1265       C  0.86689919  0.93928996  0.64917362     0.07000
C1266       C  0.88208290  0.94857452  0.61211028    -0.03100
Br1267     Br  0.88162520  0.00040489  0.59263534    -0.01600
Br1268     Br  0.90989178  0.93463519  0.53500208    -0.01700
Br1269     Br  0.84332525  0.88709516  0.71178287    -0.01700
Br1270     Br  0.88462915  0.82062449  0.66106953    -0.01600
C1271       C  0.05336070  0.91880414  0.60762795    -0.02800
C1272       C  0.07217467  0.88373127  0.60237757     0.06900
C1273       C  0.10701566  0.87749094  0.62249794    -0.02900
C1274       C  0.12161329  0.90542278  0.64764242    -0.02900
C1275       C  0.10756261  0.94380649  0.64616218     0.07000
C1276       C  0.07262017  0.94982578  0.62492671    -0.03100
Br1277     Br  0.04922587  0.99893414  0.61460568    -0.01600
Br1278     Br  0.99883409  0.92349441  0.59600918    -0.01700
Br1279     Br  0.15586537  0.88677161  0.68767813    -0.01700
Br1280     Br  0.13623198  0.83126549  0.61591052    -0.01600
C1281       C  0.22495257  0.82436637  0.48060754    -0.02800
C1282       C  0.24936558  0.80606048  0.50810440     0.06900
C1283       C  0.23065424  0.78222529  0.53682207    -0.02900
C1284       C  0.19105097  0.77199755  0.53423103    -0.02900
C1285       C  0.16892958  0.78445376  0.50218939     0.07000
C1286       C  0.18642942  0.81089726  0.47537149    -0.03100
Br1287     Br  0.15734230  0.83190824  0.43261946    -0.01600
Br1288     Br  0.23702377  0.87506677  0.45935066    -0.01700
Br1289     Br  0.16832438  0.74079021  0.57605287    -0.01700
Br1290     Br  0.25722953  0.76572118  0.58294927    -0.01600
C1291       C  0.40264952  0.72883207  0.48875447    -0.02800
C1292       C  0.37768187  0.73936110  0.51873539     0.06900
C1293       C  0.36785906  0.71173670  0.54793989    -0.02900
C1294       C  0.37800508  0.67294105  0.54439872    -0.02900
C1295       C  0.40136429  0.66159304  0.51307868     0.07000
C1296       C  0.41304838  0.69027188  0.48465190    -0.03100
Br1297     Br  0.44324699  0.67928797  0.43860711    -0.01600
Br1298     Br  0.42508045  0.76770416  0.45446490    -0.01700
Br1299     Br  0.35510880  0.63520774  0.57988168    -0.01700
Br1300     Br  0.34477092  0.72783601  0.59544420    -0.01600
C1301       C  0.24129627  0.24724602  0.52697865    -0.02800
C1302       C  0.25381290  0.21400344  0.50735151     0.06900
C1303       C  0.22400871  0.18937820  0.49400317    -0.02900
C1304       C  0.18544578  0.20225033  0.49062148    -0.02900
C1305       C  0.17546263  0.23926226  0.50241122     0.07000
C1306       C  0.20326053  0.26099141  0.52226010    -0.03100
Br1307     Br  0.18887265  0.30907439  0.54457557    -0.01600
Br1308     Br  0.27128546  0.26873495  0.56830750    -0.01700
Br1309     Br  0.14517930  0.16702706  0.47480722    -0.01700
Br1310     Br  0.23266881  0.13549910  0.49041865    -0.01600
C1311       C  0.40223400  0.28647072  0.47342719    -0.02800
C1312       C  0.38967119  0.26616177  0.50675979     0.06900
C1313       C  0.39633578  0.28199820  0.54353555    -0.02900
C1314       C  0.41753267  0.31678014  0.54671785    -0.02900
C1315       C  0.43058696  0.33666696  0.51311474     0.07000
C1316       C  0.42450355  0.32010098  0.47673840    -0.03100
Br1317     Br  0.44587900  0.34370437  0.43051007    -0.01600
Br1318     Br  0.38212267  0.27310614  0.42339265    -0.01700
Br1319     Br  0.42607091  0.33843365  0.59669479    -0.01700
Br1320     Br  0.37143432  0.25959240  0.58918014    -0.01600
C1321       C  0.72619656  0.31008810  0.97173907    -0.02800
C1322       C  0.71501547  0.33175955  0.00386527     0.06900
C1323       C  0.69683139  0.31242097  0.03567837    -0.02900
C1324       C  0.69320513  0.27233565  0.03619787    -0.02900
C1325       C  0.69533654  0.25198427  0.00107124     0.07000
C1326       C  0.71343740  0.27171713  0.96887111    -0.03100
Br1327     Br  0.72682001  0.24609303  0.92184971    -0.01600
Br1328     Br  0.76303689  0.33085839  0.93344205    -0.01700
Br1329     Br  0.70180207  0.24829398  0.08623951    -0.01700
Br1330     Br  0.67602782  0.33909274  0.07945457    -0.01600
C1331       C  0.82769742  0.12440128  0.01091836    -0.02800
C1332       C  0.83906567  0.10551754  0.97699011     0.06900
C1333       C  0.81289257  0.10508156  0.94607688    -0.02900
C1334       C  0.77397934  0.11672627  0.95162745    -0.02900
C1335       C  0.76133184  0.12967110  0.98803407     0.07000
C1336       C  0.78887818  0.13393564  0.01750233    -0.03100
Br1337     Br  0.77436529  0.15519861  0.06672027    -0.01600
Br1338     Br  0.86652611  0.14372698  0.04547839    -0.01700
Br1339     Br  0.73901099  0.11750873  0.90862799    -0.01700
Br1340     Br  0.83193533  0.09571377  0.89519219    -0.01600
C1341       C  0.28896679  0.31224056  0.97528742    -0.02800
C1342       C  0.25784401  0.32518709  0.99827916     0.06900
C1343       C  0.24047705  0.29935748  0.02554153    -0.02900
C1344       C  0.25378098  0.26132174  0.02937738    -0.02900
C1345       C  0.28459540  0.24820378  0.00537771     0.07000
C1346       C  0.30494542  0.27606146  0.98236358    -0.03100
Br1347     Br  0.35982386  0.27128771  0.97132569    -0.01600
Br1348     Br  0.31019293  0.34240625  0.93260729    -0.01700
Br1349     Br  0.23091119  0.22870930  0.06980995    -0.01700
Br1350     Br  0.19551668  0.31476905  0.05482300    -0.01600
C1351       C  0.17356381  0.09475585  0.94765293    -0.02800
C1352       C  0.15983360  0.07081235  0.97807168     0.06900
C1353       C  0.17801393  0.07214517  0.01449424    -0.02900
C1354       C  0.20934211  0.09728729  0.02042612    -0.02900
C1355       C  0.22497043  0.11881939  0.98922581     0.07000
C1356       C  0.20482060  0.12026278  0.95381274    -0.03100
Br1357     Br  0.21688273  0.15983517  0.91528630    -0.01600
Br1358     Br  0.14774087  0.09432316  0.89858627    -0.01700
Br1359     Br  0.22363403  0.10992176  0.07256854    -0.01700
Br1360     Br  0.15814357  0.04180326  0.05764841    -0.01600
C1361       C  0.74058536  0.77634506  0.53717556    -0.02800
C1362       C  0.72706517  0.80985799  0.51808946     0.06900
C1363       C  0.75583058  0.83591609  0.50309055    -0.02900
C1364       C  0.79473253  0.82410817  0.49851679    -0.02900
C1365       C  0.80517862  0.78621555  0.50829583     0.07000
C1366       C  0.77822694  0.76304017  0.52953078    -0.03100
Br1367     Br  0.79256578  0.71294730  0.54860647    -0.01600
Br1368     Br  0.71089222  0.75253992  0.57924814    -0.01700
Br1369     Br  0.83476952  0.86137673  0.48464002    -0.01700
Br1370     Br  0.74483700  0.88967058  0.49731088    -0.01600
C1371       C  0.61090780  0.72139023  0.46415949    -0.02800
C1372       C  0.59715626  0.74657496  0.49253886     0.06900
C1373       C  0.56159309  0.73779971  0.51176091    -0.02900
C1374       C  0.54068219  0.70391539  0.50322147    -0.02900
C1375       C  0.55563016  0.67757018  0.47676241     0.07000
C1376       C  0.59164690  0.68628232  0.45847768    -0.03100
Br1377     Br  0.61878167  0.64796144  0.43072744    -0.01600
Br1378     Br  0.65578965  0.73449999  0.43156951    -0.01700
Br1379     Br  0.49468657  0.69092521  0.53254531    -0.01700
Br1380     Br  0.54325247  0.76942994  0.55298320    -0.01600
C1381       C  0.68167865  0.74588902  0.96650152    -0.02800
C1382       C  0.69269068  0.76978428  0.99763527     0.06900
C1383       C  0.71389233  0.75171866  0.02812104    -0.02900
C1384       C  0.72961061  0.71505837  0.02422063    -0.02900
C1385       C  0.72030674  0.69241304  0.99248950     0.07000
C1386       C  0.69764706  0.70893242  0.96269541    -0.03100
Br1387     Br  0.68785571  0.68186236  0.91556514    -0.01600
Br1388     Br  0.63643864  0.75563707  0.93539262    -0.01700
Br1389     Br  0.76721233  0.69752561  0.06155455    -0.01700
Br1390     Br  0.71562981  0.77165740  0.07959238    -0.01600
C1391       C  0.77931746  0.89009216  0.04494759    -0.02800
C1392       C  0.74873752  0.90328935  0.02116366     0.06900
C1393       C  0.75151855  0.94180166  0.00646332    -0.02900
C1394       C  0.78575618  0.96397667  0.01239080    -0.02900
C1395       C  0.81805536  0.94721404  0.03005521     0.07000
C1396       C  0.81430730  0.91069877  0.04714778    -0.03100
Br1397     Br  0.85815396  0.88802336  0.07282422    -0.01600
Br1398     Br  0.77328093  0.84663747  0.07946254    -0.01700
Br1399     Br  0.78929834  0.01690179  0.99563479    -0.01700
Br1400     Br  0.71085876  0.96514107  0.97669065    -0.01600
C1401       C  0.31155843  0.73289464  0.00669274    -0.02800
C1402       C  0.28348963  0.76110562  0.99776228     0.06900
C1403       C  0.25001792  0.74924794  0.97683855    -0.02900
C1404       C  0.23907279  0.71047951  0.97653988    -0.02900
C1405       C  0.26439838  0.68303073  0.99113657     0.07000
C1406       C  0.30174848  0.69395932  0.00316571    -0.03100
Br1407     Br  0.34053939  0.65536561  0.01149645    -0.01600
Br1408     Br  0.36542259  0.74546184  0.01711063    -0.01700
Br1409     Br  0.18932533  0.69498564  0.95637977    -0.01700
Br1410     Br  0.22168774  0.78398546  0.94346945    -0.01600
C1411       C  0.18848810  0.86530761  0.05526789    -0.02800
C1412       C  0.22174772  0.88405101  0.03742373     0.06900
C1413       C  0.21753638  0.92232113  0.02621528    -0.02900
C1414       C  0.18073602  0.93588095  0.01743668    -0.02900
C1415       C  0.14674659  0.91659095  0.03166857     0.07000
C1416       C  0.15132621  0.88224119  0.05319388    -0.03100
Br1417     Br  0.10645459  0.85630521  0.07621712    -0.01600
Br1418     Br  0.19317234  0.81888317  0.08645629    -0.01700
Br1419     Br  0.18010107  0.97822000  0.98159616    -0.01700
Br1420     Br  0.25635855  0.95984609  0.03928820    -0.01600
C1421       C  0.29463690  0.98928791  0.31034890    -0.02800
C1422       C  0.30995798  0.00779941  0.27663297     0.06900
C1423       C  0.28733502  0.03516935  0.25710993    -0.02900
C1424       C  0.24976996  0.04324466  0.27060216    -0.02900
C1425       C  0.23201640  0.02033398  0.30075820     0.07000
C1426       C  0.25666077  0.99716639  0.32336949    -0.03100
Br1427     Br  0.24369618  0.98604545  0.37674640    -0.01600
Br1428     Br  0.32631181  0.95540977  0.34099512    -0.01700
Br1429     Br  0.22514904  0.08846517  0.24946105    -0.01700
Br1430     Br  0.30689865  0.06063621  0.21030099    -0.01600
C1431       C  0.74052387  0.04062993  0.26434550    -0.02800
C1432       C  0.75482975  0.01686292  0.29482719     0.06900
C1433       C  0.72676318  0.99529790  0.31682945    -0.02900
C1434       C  0.68949272  0.98798452  0.30192584    -0.02900
C1435       C  0.67539436  0.01030440  0.27064988     0.07000
C1436       C  0.70082038  0.03868480  0.25383377    -0.03100
Br1437     Br  0.68198950  0.07623294  0.21700706    -0.01600
Br1438     Br  0.77384205  0.07864188  0.23826866    -0.01700
Br1439     Br  0.65734787  0.94954783  0.32809459    -0.01700
Br1440     Br  0.73195531  0.98874444  0.37222152    -0.01600
C1441       C  0.39626796  0.89398712  0.45609087    -0.02800
C1442       C  0.37775896  0.85881450  0.44735722     0.06900
C1443       C  0.37841493  0.84673484  0.40869918    -0.02900
C1444       C  0.39783062  0.86894837  0.37956396    -0.02900
C1445       C  0.41348943  0.90596848  0.38763844     0.07000
C1446       C  0.41312943  0.91779330  0.42663695    -0.03100
Br1447     Br  0.43367670  0.96748389  0.44118802    -0.01600
Br1448     Br  0.39628321  0.91202850  0.50811417    -0.01700
Br1449     Br  0.40451794  0.84596918  0.32952709    -0.01700
Br1450     Br  0.35194548  0.79964199  0.39490129    -0.01600
C1451       C  0.61988160  0.90685738  0.44066657    -0.02800
C1452       C  0.61432321  0.86666649  0.44019668     0.06900
C1453       C  0.58778579  0.85092287  0.41374040    -0.02900
C1454       C  0.56921033  0.87466950  0.38659201    -0.02900
C1455       C  0.57568755  0.91456112  0.38646124     0.07000
C1456       C  0.59873720  0.93066703  0.41551974    -0.03100
Br1457     Br  0.59799245  0.98475689  0.42439905    -0.01600
Br1458     Br  0.65267818  0.93008713  0.47889759    -0.01700
Br1459     Br  0.53088396  0.85301234  0.35251436    -0.01700
Br1460     Br  0.57567698  0.79707918  0.41402545    -0.01600
C1461       C  0.42884199  0.12896751  0.39972273    -0.02800
C1462       C  0.40673292  0.10412550  0.37715252     0.06900
C1463       C  0.36644388  0.10201032  0.38316518    -0.02900
C1464       C  0.34908557  0.12205806  0.41360956    -0.02900
C1465       C  0.36987834  0.15174623  0.43277890     0.07000
C1466       C  0.41048248  0.15574785  0.42344919    -0.03100
Br1467     Br  0.44280840  0.19891384  0.43737561    -0.01600
Br1468     Br  0.48462462  0.12540768  0.39935499    -0.01700
Br1469     Br  0.30009801  0.10146468  0.43197300    -0.01700
Br1470     Br  0.33527956  0.06916888  0.35149692    -0.01600
C1471       C  0.45961239  0.20579677  0.23391213    -0.02800
C1472       C  0.49102433  0.18387144  0.22077230     0.06900
C1473       C  0.51656977  0.19990434  0.19218295    -0.02900
C1474       C  0.51078103  0.23721957  0.17719973    -0.02900
C1475       C  0.48298932  0.26120034  0.19439392     0.07000
C1476       C  0.45473764  0.24334579  0.21966694    -0.03100
Br1477     Br  0.40804492  0.26901283  0.23531174    -0.01600
Br1478     Br  0.42405768  0.18599694  0.27391241    -0.01700
Br1479     Br  0.53235343  0.24927497  0.12657950    -0.01700
Br1480     Br  0.55912040  0.17094814  0.17157035    -0.01600
C1481       C  0.45196916  0.80876765  0.21818479    -0.02800
C1482       C  0.48682763  0.82647386  0.23146851     0.06900
C1483       C  0.52088536  0.80433173  0.23160002    -0.02900
C1484       C  0.52138178  0.76799722  0.21435256    -0.02900
C1485       C  0.48615570  0.74961351  0.20158535     0.07000
C1486       C  0.45111557  0.76981777  0.20775256    -0.03100
Br1487     Br  0.40074519  0.74445275  0.21022039    -0.01600
Br1488     Br  0.40387690  0.83642991  0.21257542    -0.01700
Br1489     Br  0.57232066  0.74486250  0.21099697    -0.01700
Br1490     Br  0.56717942  0.82142902  0.25842617    -0.01600
C1491       C  0.62821043  0.07475092  0.10743933    -0.02800
C1492       C  0.58888848  0.08437305  0.11200562     0.06900
C1493       C  0.57321118  0.11280355  0.08771252    -0.02900
C1494       C  0.59769467  0.13462851  0.06232790    -0.02900
C1495       C  0.63800252  0.12650806  0.05938879     0.07000
C1496       C  0.65261932  0.09541969  0.08114775    -0.03100
Br1497     Br  0.70587871  0.08045007  0.07506062    -0.01600
Br1498     Br  0.64767843  0.03087072  0.13482897    -0.01700
Br1499     Br  0.57458714  0.17299652  0.02913159    -0.01700
Br1500     Br  0.51780509  0.12045498  0.08802831    -0.01600
C1501       C  0.56801126  0.87707889  0.11223440    -0.02800
C1502       C  0.58452818  0.90605801  0.13449321     0.06900
C1503       C  0.62489607  0.91268232  0.13307887    -0.02900
C1504       C  0.64689158  0.89782172  0.10295285    -0.02900
C1505       C  0.62966387  0.87204335  0.07696656     0.07000
C1506       C  0.59064011  0.85944081  0.08377274    -0.03100
Br1507     Br  0.56643437  0.82038331  0.05297004    -0.01600
Br1508     Br  0.51607867  0.85860585  0.12436427    -0.01700
Br1509     Br  0.70050695  0.91352595  0.09937777    -0.01700
Br1510     Br  0.65105132  0.93929210  0.17418160    -0.01600
C1511       C  0.38515691  0.88396227  0.06516667    -0.02800
C1512       C  0.34734626  0.87067315  0.07444985     0.06900
C1513       C  0.33166849  0.87812112  0.11117899    -0.02900
C1514       C  0.35274416  0.90045892  0.13759231    -0.02900
C1515       C  0.39138464  0.91325385  0.12871418     0.07000
C1516       C  0.40697221  0.90537177  0.09152379    -0.03100
Br1517     Br  0.45772296  0.92422688  0.07418889    -0.01600
Br1518     Br  0.40832416  0.87135865  0.01654785    -0.01700
Br1519     Br  0.32578995  0.91724360  0.18336720    -0.01700
Br1520     Br  0.28151900  0.85679349  0.12580539    -0.01600
C1521       C  0.39757078  0.12678697  0.11221550    -0.02800
C1522       C  0.39280432  0.08735593  0.11996498     0.06900
C1523       C  0.36464736  0.06674626  0.09951791    -0.02900
C1524       C  0.34007783  0.08564033  0.07276061    -0.02900
C1525       C  0.34518184  0.12575125  0.06365893     0.07000
C1526       C  0.37632863  0.14521764  0.08266147    -0.03100
Br1527     Br  0.39552568  0.19555103  0.06628516    -0.01600
Br1528     Br  0.43406620  0.15581403  0.14229793    -0.01700
Br1529     Br  0.29946054  0.05426314  0.05146320    -0.01700
Br1530     Br  0.35875410  0.01224417  0.10993788    -0.01600
C1531       C  0.76317193  0.18824427  0.48628693    -0.02800
C1532       C  0.73378291  0.20864502  0.50513064     0.06900
C1533       C  0.74567868  0.23907600  0.52959928    -0.02900
C1534       C  0.78410462  0.25361040  0.52788524    -0.02900
C1535       C  0.81199177  0.23596162  0.50477107     0.07000
C1536       C  0.80109922  0.20339826  0.48379317    -0.03100
Br1537     Br  0.83753528  0.17859145  0.45084484    -0.01600
Br1538     Br  0.75564060  0.13530614  0.47289457    -0.01700
Br1539     Br  0.79719510  0.30067518  0.55317589    -0.01700
Br1540     Br  0.71084245  0.26068638  0.56728645    -0.01600
C1541       C  0.57739182  0.14830080  0.36841602    -0.02800
C1542       C  0.58715581  0.10957800  0.36484525     0.06900
C1543       C  0.61793116  0.09501098  0.38636586    -0.02900
C1544       C  0.63322495  0.11573512  0.41710904    -0.02900
C1545       C  0.62125643  0.15372588  0.42347610     0.07000
C1546       C  0.59359043  0.17011970  0.39824041    -0.03100
Br1547     Br  0.57700126  0.22203002  0.40356537    -0.01600
Br1548     Br  0.54425582  0.17212556  0.33039601    -0.01700
Br1549     Br  0.66676425  0.08935150  0.45264109    -0.01700
Br1550     Br  0.64415436  0.05063470  0.36831438    -0.01600
C1551       C  0.56634115  0.32075650  0.50539627    -0.02800
C1552       C  0.57922244  0.34883972  0.47666200     0.06900
C1553       C  0.60757603  0.33776652  0.44951949    -0.02900
C1554       C  0.62205469  0.30001628  0.45057507    -0.02900
C1555       C  0.60928847  0.27290765  0.47957032     0.07000
C1556       C  0.58138562  0.28355654  0.50661940    -0.03100
Br1557     Br  0.56743063  0.24833072  0.54898809    -0.01600
Br1558     Br  0.53021543  0.33111760  0.54677557    -0.01700
Br1559     Br  0.66090302  0.28621773  0.41270628    -0.01700
Br1560     Br  0.63105065  0.37533610  0.41430245    -0.01600
C1561       C  0.23863249  0.98067265  0.74582726    -0.02800
C1562       C  0.22669194  0.00162989  0.71237395     0.06900
C1563       C  0.25614781  0.01945256  0.68920469    -0.02900
C1564       C  0.29285017  0.02684566  0.70456289    -0.02900
C1565       C  0.30440059  0.00828242  0.73905225     0.07000
C1566       C  0.27720221  0.98441542  0.75924732    -0.03100
Br1567     Br  0.29200071  0.95888932  0.80680486    -0.01600
Br1568     Br  0.20542460  0.94159364  0.76973385    -0.01700
Br1569     Br  0.32604554  0.06332441  0.67737011    -0.01700
Br1570     Br  0.25048560  0.02521888  0.63372303    -0.01600
C1571       C  0.67892739  0.99122772  0.69134867    -0.02800
C1572       C  0.66734765  0.00825164  0.72608329     0.06900
C1573       C  0.69435718  0.02972730  0.74661917    -0.02900
C1574       C  0.73294851  0.03251060  0.73353050    -0.02900
C1575       C  0.74708977  0.00798258  0.70435031     0.07000
C1576       C  0.71866854  0.99048756  0.68046577    -0.03100
Br1577     Br  0.73049965  0.97402340  0.62870416    -0.01600
Br1578     Br  0.63962088  0.97377341  0.65619350    -0.01700
Br1579     Br  0.76229423  0.07626208  0.75022287    -0.01700
Br1580     Br  0.67837792  0.05614481  0.79258333    -0.01600
C1581       C  0.40794802  0.15594324  0.58012897    -0.02800
C1582       C  0.37288999  0.14478540  0.56151680     0.06900
C1583       C  0.35918779  0.10652687  0.56708276    -0.02900
C1584       C  0.37824034  0.08158095  0.59279448    -0.02900
C1585       C  0.40691157  0.09616215  0.61729337     0.07000
C1586       C  0.42264554  0.13292272  0.61013405    -0.03100
Br1587     Br  0.46697252  0.15018948  0.63956541    -0.01600
Br1588     Br  0.44044443  0.19885218  0.56336788    -0.01700
Br1589     Br  0.36723377  0.02725397  0.59229850    -0.01700
Br1590     Br  0.31658542  0.08655013  0.53749255    -0.01600
C1591       C  0.60302271  0.12667315  0.62356094    -0.02800
C1592       C  0.57165234  0.10135014  0.61540738     0.06900
C1593       C  0.55801619  0.10146068  0.57667523    -0.02900
C1594       C  0.57673800  0.12466159  0.54727101    -0.02900
C1595       C  0.60590170  0.15220466  0.55664540     0.07000
C1596       C  0.61591483  0.15460796  0.59611844    -0.03100
Br1597     Br  0.64346302  0.19879262  0.61505859    -0.01600
Br1598     Br  0.63330381  0.12098786  0.67010382    -0.01700
Br1599     Br  0.56249291  0.11639022  0.49445726    -0.01700
Br1600     Br  0.51334792  0.07060961  0.56254773    -0.01600
C1601       C  0.58232185  0.86725002  0.63946589    -0.02800
C1602       C  0.56729886  0.90401108  0.63046225     0.06900
C1603       C  0.56614983  0.91607796  0.59105166    -0.02900
C1604       C  0.57716642  0.89115001  0.56189768    -0.02900
C1605       C  0.59818394  0.85796871  0.57106484     0.07000
C1606       C  0.59929115  0.84535762  0.61007254    -0.03100
Br1607     Br  0.62064901  0.79594427  0.62279504    -0.01600
Br1608     Br  0.57866956  0.84505330  0.69112812    -0.01700
Br1609     Br  0.55747224  0.90104891  0.51104858    -0.01700
Br1610     Br  0.55352239  0.96798395  0.57496821    -0.01600
C1611       C  0.40139163  0.84664877  0.59764372    -0.02800
C1612       C  0.36554838  0.85787417  0.58089642     0.06900
C1613       C  0.34722555  0.89120277  0.59525290    -0.02900
C1614       C  0.36297641  0.91045241  0.62669331    -0.02900
C1615       C  0.40023693  0.90181006  0.63943925     0.07000
C1616       C  0.41965479  0.87012379  0.62489368    -0.03100
Br1617     Br  0.47109359  0.85870959  0.64327508    -0.01600
Br1618     Br  0.42544194  0.79846727  0.58684158    -0.01700
Br1619     Br  0.33341804  0.94872112  0.65295620    -0.01700
Br1620     Br  0.30426095  0.91593859  0.56967866    -0.01600
C1621       C  0.45303103  0.24938119  0.78356686    -0.02800
C1622       C  0.48827359  0.27136103  0.78426101     0.06900
C1623       C  0.52106563  0.25467825  0.76574897    -0.02900
C1624       C  0.52031559  0.21565248  0.75471760    -0.02900
C1625       C  0.48733149  0.19165997  0.76280134     0.07000
C1626       C  0.45331037  0.20953394  0.77706379    -0.03100
Br1627     Br  0.40550940  0.18111516  0.78859221    -0.01600
Br1628     Br  0.40289253  0.27371826  0.78002188    -0.01700
Br1629     Br  0.56346626  0.19681253  0.72447696    -0.01700
Br1630     Br  0.56560074  0.28585816  0.74921772    -0.01600
C1631       C  0.45871056  0.76416912  0.77168276    -0.02800
C1632       C  0.49197050  0.74734411  0.78891301     0.06900
C1633       C  0.52423749  0.77230269  0.79536947    -0.02900
C1634       C  0.51917701  0.81194798  0.79632067    -0.02900
C1635       C  0.48638119  0.82855396  0.77900551     0.07000
C1636       C  0.45693278  0.80414997  0.76499433    -0.03100
Br1637     Br  0.41579313  0.82456825  0.73320288    -0.01600
Br1638     Br  0.41687086  0.73367973  0.75195435    -0.01700
Br1639     Br  0.55802329  0.84223546  0.82235395    -0.01700
Br1640     Br  0.57748690  0.75676450  0.78747105    -0.01600
C1641       C  0.38621115  0.14460616  0.92946248    -0.02800
C1642       C  0.34606801  0.13543311  0.93321508     0.06900
C1643       C  0.32957668  0.10876963  0.90754353    -0.02900
C1644       C  0.35138749  0.09564564  0.87622304    -0.02900
C1645       C  0.39175633  0.10223283  0.87483445     0.07000
C1646       C  0.40921071  0.12685772  0.90132906    -0.03100
Br1647     Br  0.46439438  0.13769119  0.89751087    -0.01600
Br1648     Br  0.41096271  0.17891008  0.96463136    -0.01700
Br1649     Br  0.32546139  0.06868148  0.83518170    -0.01700
Br1650     Br  0.27966052  0.08489555  0.91627266    -0.01600
C1651       C  0.39681789  0.88876881  0.90167787    -0.02800
C1652       C  0.38935929  0.92740154  0.89323151     0.06900
C1653       C  0.35666299  0.94424662  0.91018683    -0.02900
C1654       C  0.33060764  0.92235848  0.93398976    -0.02900
C1655       C  0.33918003  0.88432947  0.94520949     0.07000
C1656       C  0.37271564  0.86736548  0.92785911    -0.03100
Br1657     Br  0.38836552  0.81516952  0.93873977    -0.01600
Br1658     Br  0.44090620  0.86533232  0.87683962    -0.01700
Br1659     Br  0.27996181  0.94236830  0.94439052    -0.01700
Br1660     Br  0.34733654  0.99744086  0.90061253    -0.01600
C1661       C  0.62904989  0.92225825  0.87826186    -0.02800
C1662       C  0.58940602  0.93120175  0.88531783     0.06900
C1663       C  0.57378430  0.92448558  0.92289704    -0.02900
C1664       C  0.59742238  0.91047703  0.95274973    -0.02900
C1665       C  0.63537876  0.89787449  0.94482449     0.07000
C1666       C  0.65134729  0.90465795  0.90755121    -0.03100
Br1667     Br  0.70477166  0.89137731  0.89728901    -0.01600
Br1668     Br  0.65423665  0.93481308  0.82926837    -0.01700
Br1669     Br  0.57704507  0.91021386  0.00446348    -0.01700
Br1670     Br  0.51891693  0.93101044  0.93390913    -0.01600
C1671       C  0.59705710  0.07867156  0.91112440    -0.02800
C1672       C  0.58839629  0.09724377  0.87591385     0.06900
C1673       C  0.60421254  0.13410189  0.86838242    -0.02900
C1674       C  0.63054859  0.15049127  0.89437346    -0.02900
C1675       C  0.63499617  0.13452218  0.93224799     0.07000
C1676       C  0.61589937  0.09860004  0.94047241    -0.03100
Br1677     Br  0.60941042  0.07577912  0.99123685    -0.01600
Br1678     Br  0.58698333  0.02447692  0.91864390    -0.01700
Br1679     Br  0.66359963  0.19106026  0.87379922    -0.01700
Br1680     Br  0.58898867  0.16351625  0.82330967    -0.01600
loop_ 
_geom_bond_atom_site_label_1 
_geom_bond_atom_site_label_2 
_geom_bond_distance 
_geom_bond_site_symmetry_2 
_ccdc_geom_bond_type 
O1           C12   1.291       .  A
O1          Eu37   2.448       .  S
O2           C13   1.296       .  A
O2          Eu36   2.498       .  S
O3           C14   1.293       .  A
O3           Eu9   2.462       .  S
O4           C15   1.296       .  A
O4           Eu9   2.493       .  S
O5           C15   1.292       .  A
O5          Eu39   2.475       .  S
O6           C14   1.289   1_565  A
O6          Eu38   2.451       .  S
O7           C13   1.294       .  A
O7           Eu9   2.474       .  S
O8           C12   1.293       .  A
O8           Eu9   2.466       .  S
Eu9          O19   2.348       .  S
Eu9          O11   2.357       .  S
Eu9          O10   2.347       .  S
Eu9          O17   2.365       .  S
O10         Eu39   2.335       .  S
O10         Eu36   2.357       .  S
O11         Eu37   2.361       .  S
O11         Eu38   2.353   1_545  S
C12        C1672   1.487       .  S
C13        C1592   1.522       .  S
C14        C1572   1.471       .  S
C15        C1625   1.521       .  S
H16          O17   0.965       .  S
O17         Eu38   2.352   1_545  S
O17         Eu36   2.326       .  S
H18          O19   0.963       .  S
O19         Eu37   2.352       .  S
O19         Eu39   2.354       .  S
O20          C43   1.291       .  A
O20         Eu36   2.460   1_565  S
O21          C44   1.296       .  A
O21         Eu37   2.494   1_565  S
O22          C45   1.289       .  A
O22         Eu38   2.461       .  S
O23          C46   1.294       .  A
O23         Eu39   2.471       .  S
O24          C47   1.286       .  A
O24         Eu39   2.427       .  S
O25          C48   1.286       .  A
O25         Eu38   2.441       .  S
O26          C49   1.292       .  A
O26         Eu40   2.466       .  S
O27          C50   1.294   1_565  A
O27         Eu40   2.472       .  S
O28          C49   1.288       .  A
O28         Eu38   2.444       .  S
O29          C50   1.291       .  A
O29         Eu39   2.459       .  S
O30          C45   1.284       .  A
O30         Eu36   2.431   1_565  S
O31          C48   1.295       .  A
O31         Eu37   2.485   1_565  S
O32          C47   1.294       .  A
O32         Eu37   2.471       .  S
O33          C46   1.283       .  A
O33         Eu36   2.421       .  S
O34          C43   1.288       .  A
O34         Eu40   2.442       .  S
O35          C44   1.290       .  A
O35         Eu40   2.459       .  S
Eu36         O54   2.346       .  S
Eu36         O42   2.346   1_545  S
Eu37         O41   2.352       .  S
Eu37         O52   2.343   1_545  S
Eu38         O52   2.373       .  S
Eu38         O42   2.336       .  S
Eu39         O41   2.362       .  S
Eu39         O54   2.351       .  S
Eu40         O41   2.339   1_565  S
Eu40         O52   2.359       .  S
Eu40         O54   2.369   1_565  S
Eu40         O42   2.354       .  S
C43        C1615   1.466       .  S
C44        C1652   1.489       .  S
C45        C1602   1.497       .  S
C46        C1585   1.467       .  S
C47        C1645   1.469       .  S
C48        C1662   1.500       .  S
C49        C1635   1.488       .  S
C50        C1565   1.487       .  S
H51          O52   0.962       .  S
H53          O54   0.963       .  S
C55          C56   1.530       .  S
C55          C61   1.520       .  S
C55          C59   1.550       .  S
C55        C1532   1.542       .  S
C56          H63   1.086       .  S
C56          C57   1.372       .  D
C57          C58   1.568       .  S
C57        C1595   1.531       .  S
C58          C62   1.559       .  S
C58          C60   1.547       .  S
C58          H64   1.108       .  S
C59          H65   1.082       .  S
C59          C60   1.374       .  D
C60        C1545   1.499       .  S
C61          H66   1.087       .  S
C61          C62   1.347       .  D
C62        C1555   1.493       .  S
O67          C78   1.301       .  A
O67        Eu103   2.511       .  S
O68          C79   1.293       .  A
O68        Eu102   2.475       .  S
O69          C80   1.289       .  A
O69         Eu75   2.456       .  S
O70          C81   1.290       .  A
O70         Eu75   2.461       .  S
O71          C81   1.286       .  A
O71        Eu105   2.429       .  S
O72          C80   1.297   1_565  A
O72        Eu104   2.496       .  S
O73          C79   1.293       .  A
O73         Eu75   2.469       .  S
O74          C78   1.285       .  A
O74         Eu75   2.424       .  S
Eu75         O85   2.359       .  S
Eu75         O77   2.356       .  S
Eu75         O76   2.346       .  S
Eu75         O83   2.348       .  S
O76        Eu105   2.357       .  S
O76        Eu102   2.349       .  S
O77        Eu103   2.344       .  S
O77        Eu104   2.335   1_545  S
C78        C1542   1.478       .  S
C79        C1492   1.485       .  S
C80        C1435   1.507       .  S
C81        C1472   1.486       .  S
H82          O83   0.966       .  S
O83        Eu104   2.363   1_545  S
O83        Eu102   2.376       .  S
H84          O85   0.967       .  S
O85        Eu103   2.363       .  S
O85        Eu105   2.345       .  S
O86         C109   1.288       .  A
O86        Eu102   2.453   1_565  S
O87         C110   1.295       .  A
O87        Eu103   2.489   1_565  S
O88         C111   1.279       .  A
O88        Eu104   2.384       .  S
O89         C112   1.293       .  A
O89        Eu105   2.469       .  S
O90         C113   1.295       .  A
O90        Eu105   2.481       .  S
O91         C114   1.294       .  A
O91        Eu104   2.467       .  S
O92         C115   1.285       .  A
O92        Eu106   2.446       .  S
O93         C116   1.291   1_565  A
O93        Eu106   2.465       .  S
O94         C115   1.294       .  A
O94        Eu104   2.484       .  S
O95         C116   1.288       .  A
O95        Eu105   2.437       .  S
O96         C111   1.300       .  A
O96        Eu102   2.506   1_565  S
O97         C114   1.288       .  A
O97        Eu103   2.447   1_565  S
O98         C113   1.292       .  A
O98        Eu103   2.459       .  S
O99         C112   1.298       .  A
O99        Eu102   2.501       .  S
O100        C109   1.294       .  A
O100       Eu106   2.483       .  S
O101        C110   1.288       .  A
O101       Eu106   2.449       .  S
Eu102       O120   2.373       .  S
Eu102       O108   2.342   1_545  S
Eu103       O107   2.359       .  S
Eu103       O118   2.369   1_545  S
Eu104       O118   2.328       .  S
Eu104       O108   2.354       .  S
Eu105       O107   2.345       .  S
Eu105       O120   2.347       .  S
Eu106       O107   2.356   1_565  S
Eu106       O118   2.364       .  S
Eu106       O120   2.345   1_565  S
Eu106       O108   2.341       .  S
C109       C1515   1.506       .  S
C110       C1445   1.509       .  S
C111       C1502   1.464       .  S
C112       C1522   1.495       .  S
C113       C1462   1.486       .  S
C114       C1455   1.481       .  S
C115       C1482   1.515       .  S
C116       C1422   1.482       .  S
H117        O118   0.965       .  S
H119        O120   0.966       .  S
C121        C122   1.518   1_554  S
C121        C127   1.521       .  S
C121        C125   1.559       .  S
C121       C1402   1.531   1_554  S
C122        H129   1.085       .  S
C122        C123   1.354       .  D
C123        C124   1.572   1_556  S
C123       C1655   1.521       .  S
C124        C128   1.581       .  S
C124        C126   1.532       .  S
C124        H130   1.099       .  S
C125        H131   1.083       .  S
C125        C126   1.367       .  D
C126       C1512   1.495       .  S
C127        H132   1.080       .  S
C127        C128   1.361       .  D
C128       C1412   1.520       .  S
C133        C134   1.535       .  S
C133        C139   1.544       .  S
C133        C137   1.551   1_554  S
C133       C1382   1.570   1_554  S
C134        H141   1.085       .  S
C134        C135   1.359       .  D
C135        C136   1.537       .  S
C135       C1505   1.489       .  S
C136        C140   1.549       .  S
C136        C138   1.543   1_554  S
C136        H142   1.106       .  S
C137        H143   1.074       .  S
C137        C138   1.371       .  D
C138       C1665   1.500       .  S
C139        H144   1.086       .  S
C139        C140   1.376       .  D
C140       C1392   1.515       .  S
C145        C146   1.551       .  S
C145        C151   1.537       .  S
C145        C149   1.535       .  S
C145       C1362   1.552       .  S
C146        H153   1.084       .  S
C146        C147   1.370       .  D
C147        C148   1.537       .  S
C147       C1452   1.491       .  S
C148        C152   1.538       .  S
C148        C150   1.548       .  S
C148        H154   1.108       .  S
C149        H155   1.086       .  S
C149        C150   1.373       .  D
C150       C1605   1.499       .  S
C151        H156   1.084       .  S
C151        C152   1.361       .  D
C152       C1372   1.494       .  S
C157        C158   1.545       .  S
C157        C163   1.519   1_554  S
C157        C161   1.558   1_554  S
C157       C1345   1.553       .  S
C158        H165   1.083       .  S
C158        C159   1.381       .  D
C159        C160   1.558   1_554  S
C159       C1525   1.540       .  S
C160        C164   1.557       .  S
C160        C162   1.526       .  S
C160        H166   1.098       .  S
C161        H167   1.081       .  S
C161        C162   1.367       .  D
C162       C1642   1.498       .  S
C163        H168   1.087       .  S
C163        C164   1.351       .  D
C164       C1355   1.473       .  S
C169        C170   1.551       .  S
C169        C175   1.515       .  S
C169        C173   1.539   1_556  S
C169       C1325   1.547   1_556  S
C170        H177   1.084       .  S
C170        C171   1.385       .  D
C171        C172   1.553       .  S
C171       C1675   1.520       .  S
C172        C176   1.545       .  S
C172        C174   1.556   1_556  S
C172        H178   1.106       .  S
C173        H179   1.082       .  S
C173        C174   1.365       .  D
C174       C1495   1.500       .  S
C175        H180   1.088       .  S
C175        C176   1.346       .  D
C176       C1335   1.488       .  S
C181        C182   1.560       .  S
C181        C187   1.527       .  S
C181        C185   1.547       .  S
C181       C1302   1.560       .  S
C182        H189   1.083       .  S
C182        C183   1.387       .  D
C183        C184   1.549       .  S
C183       C1465   1.533       .  S
C184        C188   1.547       .  S
C184        C186   1.524       .  S
C184        H190   1.092       .  S
C185        H191   1.086       .  S
C185        C186   1.375       .  D
C186       C1582   1.500       .  S
C187        H192   1.085       .  S
C187        C188   1.349       .  D
C188       C1312   1.479       .  S
C193        C194   1.533       .  S
C193        C199   1.534       .  S
C193        C197   1.543       .  S
C193       C1282   1.555       .  S
C194        H201   1.083       .  S
C194        C195   1.368       .  D
C195        C196   1.550       .  S
C195       C1612   1.509       .  S
C196        C200   1.561       .  S
C196        C198   1.548       .  S
C196        H202   1.106       .  S
C197        H203   1.077       .  S
C197        C198   1.363       .  D
C198       C1442   1.506       .  S
C199        H204   1.087       .  S
C199        C200   1.366       .  D
C200       C1292   1.501       .  S
O205        C216   1.286       .  A
O205       Eu241   2.429       .  S
O206        C217   1.294   1_455  A
O206       Eu240   2.474       .  S
O207        C218   1.285       .  A
O207       Eu213   2.436       .  S
O208        C219   1.291       .  A
O208       Eu213   2.454       .  S
O209        C219   1.292       .  A
O209       Eu243   2.465       .  S
O210        C218   1.289       .  A
O210       Eu242   2.451       .  S
O211        C217   1.292       .  A
O211       Eu213   2.471       .  S
O212        C216   1.299       .  A
O212       Eu213   2.506       .  S
Eu213       O223   2.353       .  S
Eu213       O215   2.343       .  S
Eu213       O214   2.350       .  S
Eu213       O221   2.358       .  S
O214       Eu243   2.351       .  S
O214       Eu240   2.353   1_655  S
O215       Eu241   2.352       .  S
O215       Eu242   2.353       .  S
C216       C1365   1.487       .  S
C217       C1182   1.504       .  S
C218       C1252   1.487       .  S
C219       C1232   1.477       .  S
H220        O221   0.968       .  S
O221       Eu242   2.363       .  S
O221       Eu240   2.346   1_655  S
H222        O223   0.965       .  S
O223       Eu241   2.347       .  S
O223       Eu243   2.368       .  S
O224        C247   1.294       .  A
O224       Eu240   2.479       .  S
O225        C248   1.289       .  A
O225       Eu241   2.446       .  S
O226        C249   1.297       .  A
O226       Eu242   2.494   1_455  S
O227        C250   1.289       .  A
O227       Eu243   2.448   1_455  S
O228        C251   1.291       .  A
O228       Eu243   2.474       .  S
O229        C252   1.293       .  A
O229       Eu242   2.475       .  S
O230        C253   1.291       .  A
O230       Eu244   2.468       .  S
O231        C254   1.295       .  A
O231       Eu244   2.479       .  S
O232        C253   1.293       .  A
O232       Eu242   2.469   1_455  S
O233        C254   1.294       .  A
O233       Eu243   2.481   1_455  S
O234        C249   1.299       .  A
O234       Eu240   2.507       .  S
O235        C252   1.289       .  A
O235       Eu241   2.459       .  S
O236        C251   1.293       .  A
O236       Eu241   2.484       .  S
O237        C250   1.294       .  A
O237       Eu240   2.470       .  S
O238        C247   1.287       .  A
O238       Eu244   2.441       .  S
O239        C248   1.287   1_455  A
O239       Eu244   2.441       .  S
Eu240       O258   2.362       .  S
Eu240       O246   2.356       .  S
Eu241       O245   2.353       .  S
Eu241       O256   2.353       .  S
Eu242       O256   2.358       .  S
Eu242       O246   2.343   1_655  S
Eu243       O245   2.346       .  S
Eu243       O258   2.368   1_655  S
Eu244       O245   2.359   1_455  S
Eu244       O256   2.342   1_455  S
Eu244       O258   2.346       .  S
Eu244       O246   2.355       .  S
C247       C1285   1.498       .  S
C248       C1192   1.459       .  S
C249       C1245   1.507       .  S
C250       C1202   1.491       .  S
C251       C1222   1.522       .  S
C252       C1262   1.507       .  S
C253       C1272   1.502       .  S
C254       C1215   1.494       .  S
H255        O256   0.966       .  S
H257        O258   0.966       .  S
O259        C270   1.295       .  A
O259       Eu295   2.478       .  S
O260        C271   1.290   1_455  A
O260       Eu294   2.475       .  S
O261        C272   1.293       .  A
O261       Eu267   2.476       .  S
O262        C273   1.293       .  A
O262       Eu267   2.470       .  S
O263        C273   1.293       .  A
O263       Eu297   2.471       .  S
O264        C272   1.291       .  A
O264       Eu296   2.458       .  S
O265        C271   1.282       .  A
O265       Eu267   2.430       .  S
O266        C270   1.287       .  A
O266       Eu267   2.438       .  S
Eu267       O277   2.367       .  S
Eu267       O269   2.346       .  S
Eu267       O268   2.341       .  S
Eu267       O275   2.355       .  S
O268       Eu297   2.363       .  S
O268       Eu294   2.351   1_655  S
O269       Eu295   2.360       .  S
O269       Eu296   2.365       .  S
C270       C1535   1.480       .  S
C271       C1082   1.510       .  S
C272       C1102   1.480       .  S
C273       C1162   1.497       .  S
H274        O275   0.965       .  S
O275       Eu296   2.333       .  S
O275       Eu294   2.355   1_655  S
H276        O277   0.965       .  S
O277       Eu295   2.354       .  S
O277       Eu297   2.350       .  S
O278        C301   1.297       .  A
O278       Eu294   2.491       .  S
O279        C302   1.292       .  A
O279       Eu295   2.470       .  S
O280        C303   1.299       .  A
O280       Eu296   2.508   1_455  S
O281        C304   1.292       .  A
O281       Eu297   2.469   1_455  S
O282        C305   1.296       .  A
O282       Eu297   2.493       .  S
O283        C306   1.294       .  A
O283       Eu296   2.486       .  S
O284        C307   1.288       .  A
O284       Eu298   2.442       .  S
O285        C308   1.283       .  A
O285       Eu298   2.433       .  S
O286        C307   1.287       .  A
O286       Eu296   2.435   1_455  S
O287        C308   1.292       .  A
O287       Eu297   2.470   1_455  S
O288        C303   1.291       .  A
O288       Eu294   2.461       .  S
O289        C306   1.282       .  A
O289       Eu295   2.428       .  S
O290        C305   1.291       .  A
O290       Eu295   2.464       .  S
O291        C304   1.287       .  A
O291       Eu294   2.444       .  S
O292        C301   1.291       .  A
O292       Eu298   2.460       .  S
O293        C302   1.298   1_455  A
O293       Eu298   2.497       .  S
Eu294       O312   2.359       .  S
Eu294       O300   2.351       .  S
Eu295       O299   2.351       .  S
Eu295       O310   2.352       .  S
Eu296       O310   2.345       .  S
Eu296       O300   2.362   1_655  S
Eu297       O299   2.359       .  S
Eu297       O312   2.344   1_655  S
Eu298       O299   2.355   1_455  S
Eu298       O310   2.339   1_455  S
Eu298       O312   2.351       .  S
Eu298       O300   2.356       .  S
C301       C1305   1.487       .  S
C302       C1092   1.492       .  S
C303       C1132   1.503       .  S
C304       C1172   1.499       .  S
C305       C1152   1.491       .  S
C306       C1115   1.507       .  S
C307       C1122   1.478       .  S
C308       C1142   1.497       .  S
H309        O310   0.963       .  S
H311        O312   0.963       .  S
C313        C314   1.539       .  S
C313        C319   1.535       .  S
C313        C317   1.533       .  S
C313       C1062   1.539       .  S
C314        H321   1.086       .  S
C314        C315   1.366       .  D
C315        C316   1.549       .  S
C315       C1112   1.484       .  S
C316        C320   1.549       .  S
C316        C318   1.566       .  S
C316        H322   1.098       .  S
C317        H323   1.085       .  S
C317        C318   1.375       .  D
C318       C1225   1.536       .  S
C319        H324   1.078       .  S
C319        C320   1.353       .  D
C320       C1072   1.506       .  S
C325        C326   1.530       .  S
C325        C331   1.547       .  S
C325        C329   1.548       .  S
C325       C1045   1.549       .  S
C326        H333   1.086       .  S
C326        C327   1.361       .  D
C327        C328   1.561       .  S
C327       C1212   1.497       .  S
C328        C332   1.537       .  S
C328        C330   1.536       .  S
C328        H334   1.094       .  S
C329        H335   1.074       .  S
C329        C330   1.372       .  D
C330       C1125   1.507       .  S
C331        H336   1.086       .  S
C331        C332   1.367       .  D
C332       C1055   1.508       .  S
C337        C338   1.551   1_545  S
C337        C343   1.544       .  S
C337        C341   1.529       .  S
C337       C1432   1.557       .  S
C338        H345   1.071       .  S
C338        C339   1.376       .  D
C339        C340   1.539   1_565  S
C339       C1255   1.516       .  S
C340        C344   1.536       .  S
C340        C342   1.558       .  S
C340        H346   1.096       .  S
C341        H347   1.086       .  S
C341        C342   1.362       .  D
C342       C1165   1.492       .  S
C343        H348   1.086       .  S
C343        C344   1.366       .  D
C344       C1032   1.507       .  S
C349        C350   1.526       .  S
C349        C355   1.523   1_545  S
C349        C353   1.546   1_545  S
C349       C1575   1.551       .  S
C350        H357   1.083       .  S
C350        C351   1.363       .  D
C351        C352   1.569       .  S
C351       C1155   1.528       .  S
C352        C356   1.579   1_545  S
C352        C354   1.546   1_545  S
C352        H358   1.104   1_545  S
C353        H359   1.079       .  S
C353        C354   1.366       .  D
C354       C1265   1.498       .  S
C355        H360   1.087       .  S
C355        C356   1.371       .  D
C356       C1022   1.526       .  S
C361        C362   1.562       .  S
C361        C367   1.518       .  S
C361        C365   1.533       .  S
C361       C1002   1.546       .  S
C362        H369   1.084       .  S
C362        C363   1.374       .  D
C363        C364   1.531       .  S
C363       C1235   1.506       .  S
C364        C368   1.552       .  S
C364        C366   1.561       .  S
C364        H370   1.094       .  S
C365        H371   1.084       .  S
C365        C366   1.378       .  D
C366       C1105   1.530       .  S
C367        H372   1.086       .  S
C367        C368   1.349       .  D
C368       C1012   1.479       .  S
C373        C374   1.535       .  S
C373        C379   1.522       .  S
C373        C377   1.563       .  S
C373        C982   1.550       .  S
C374        H381   1.087       .  S
C374        C375   1.361       .  D
C375        C376   1.565       .  S
C375       C1135   1.505       .  S
C376        C380   1.550       .  S
C376        C378   1.540       .  S
C376        H382   1.094       .  S
C377        H383   1.083       .  S
C377        C378   1.385       .  D
C378       C1205   1.522       .  S
C379        H384   1.087       .  S
C379        C380   1.356       .  D
C380        C995   1.503       .  S
C385        C386   1.534       .  S
C385        C391   1.523       .  S
C385        C389   1.547   1_545  S
C385       C1425   1.549       .  S
C386        H393   1.085       .  S
C386        C387   1.376       .  D
C387        C388   1.552       .  S
C387       C1175   1.508       .  S
C388        C392   1.554       .  S
C388        C390   1.570   1_545  S
C388        H394   1.106       .  S
C389        H395   1.083       .  S
C389        C390   1.373       .  D
C390       C1242   1.522       .  S
C391        H396   1.086       .  S
C391        C392   1.350       .  D
C392        C975   1.501       .  S
C397        C398   1.538   1_545  S
C397        C403   1.543       .  S
C397        C401   1.534       .  S
C397       C1562   1.545       .  S
C398        H405   1.082       .  S
C398        C399   1.379       .  D
C399        C400   1.555   1_565  S
C399       C1275   1.530       .  S
C400        C404   1.525       .  S
C400        C402   1.549       .  S
C400        H406   1.094       .  S
C401        H407   1.084       .  S
C401        C402   1.355       .  D
C402       C1145   1.479       .  S
C403        H408   1.085       .  S
C403        C404   1.365       .  D
C404        C962   1.487       .  S
O409        C420   1.288       .  A
O409       Eu445   2.455       .  S
O410        C421   1.287       .  A
O410       Eu444   2.435       .  S
O411        C422   1.288       .  A
O411       Eu417   2.434       .  S
O412        C423   1.288       .  A
O412       Eu417   2.453       .  S
O413        C423   1.294       .  A
O413       Eu447   2.482       .  S
O414        C422   1.289       .  A
O414       Eu446   2.449   1_554  S
O415        C421   1.302       .  A
O415       Eu417   2.521       .  S
O416        C420   1.296   1_554  A
O416       Eu417   2.484       .  S
Eu417       O427   2.347       .  S
Eu417       O419   2.353   1_554  S
Eu417       O418   2.343       .  S
Eu417       O425   2.357       .  S
O418       Eu447   2.342       .  S
O418       Eu444   2.348       .  S
O419       Eu445   2.350       .  S
O419       Eu446   2.354       .  S
C420       C1385   1.505       .  S
C421       C1005   1.499       .  S
C422        C892   1.479       .  S
C423        C955   1.509       .  S
H424        O425   0.967       .  S
O425       Eu446   2.383   1_554  S
O425       Eu444   2.352       .  S
H426        O427   0.969   1_556  S
O427       Eu445   2.336   1_554  S
O427       Eu447   2.353       .  S
O428        C451   1.288       .  A
O428       Eu444   2.453       .  S
O429        C452   1.288       .  A
O429       Eu445   2.447       .  S
O430        C453   1.295       .  A
O430       Eu446   2.481   1_554  S
O431        C454   1.293       .  A
O431       Eu447   2.466       .  S
O432        C455   1.292       .  A
O432       Eu447   2.471   1_556  S
O433        C456   1.300       .  A
O433       Eu446   2.502       .  S
O434        C457   1.292       .  A
O434       Eu448   2.469       .  S
O435        C458   1.290       .  A
O435       Eu448   2.458       .  S
O436        C457   1.295       .  A
O436       Eu446   2.484       .  S
O437        C458   1.294       .  A
O437       Eu447   2.477   1_556  S
O438        C453   1.294       .  A
O438       Eu444   2.475       .  S
O439        C456   1.283       .  A
O439       Eu445   2.421       .  S
O440        C455   1.290       .  A
O440       Eu445   2.459       .  S
O441        C454   1.292       .  A
O441       Eu444   2.463       .  S
O442        C451   1.286   1_556  A
O442       Eu448   2.439       .  S
O443        C452   1.286       .  A
O443       Eu448   2.436       .  S
Eu444       O462   2.347       .  S
Eu444       O450   2.352       .  S
Eu445       O449   2.338       .  S
Eu445       O460   2.363       .  S
Eu446       O460   2.363       .  S
Eu446       O450   2.349   1_556  S
Eu447       O449   2.345   1_554  S
Eu447       O462   2.371       .  S
Eu448       O449   2.359       .  S
Eu448       O460   2.348       .  S
Eu448       O462   2.348   1_556  S
Eu448       O450   2.343   1_556  S
C451       C1322   1.491       .  S
C452       C1065   1.459       .  S
C453        C885   1.487       .  S
C454        C925   1.486       .  S
C455        C942   1.499       .  S
C456        C905   1.487       .  S
C457        C915   1.491       .  S
C458        C932   1.502       .  S
H459        O460   0.965       .  S
H461        O462   0.968       .  S
O463        C474   1.289       .  A
O463       Eu499   2.444       .  S
O464        C475   1.294       .  A
O464       Eu498   2.476       .  S
O465        C476   1.286       .  A
O465       Eu471   2.438       .  S
O466        C477   1.285       .  A
O466       Eu471   2.442       .  S
O467        C477   1.293       .  A
O467       Eu501   2.479   1_554  S
O468        C476   1.299       .  A
O468       Eu500   2.509   1_554  S
O469        C475   1.287       .  A
O469       Eu471   2.443       .  S
O470        C474   1.288   1_554  A
O470       Eu471   2.442       .  S
Eu471       O481   2.348   1_554  S
Eu471       O473   2.345   1_554  S
Eu471       O472   2.340       .  S
Eu471       O479   2.360       .  S
O472       Eu501   2.350   1_554  S
O472       Eu498   2.363       .  S
O473       Eu499   2.363       .  S
O473       Eu500   2.359       .  S
C474       C1405   1.457       .  S
C475        C985   1.493       .  S
C476        C822   1.496       .  S
C477        C862   1.504       .  S
H478        O479   0.965       .  S
O479       Eu500   2.329   1_554  S
O479       Eu498   2.361       .  S
H480        O481   0.968       .  S
O481       Eu499   2.357       .  S
O481       Eu501   2.326       .  S
O482        C505   1.296   1_554  A
O482       Eu498   2.487       .  S
O483        C506   1.291       .  A
O483       Eu499   2.462       .  S
O484        C507   1.293       .  A
O484       Eu500   2.483   1_554  S
O485        C508   1.291       .  A
O485       Eu501   2.453   1_554  S
O486        C509   1.294       .  A
O486       Eu501   2.486       .  S
O487        C510   1.291       .  A
O487       Eu500   2.456       .  S
O488        C511   1.288       .  A
O488       Eu502   2.439       .  S
O489        C512   1.294       .  A
O489       Eu502   2.473       .  S
O490        C511   1.292       .  A
O490       Eu500   2.461       .  S
O491        C512   1.287       .  A
O491       Eu501   2.439       .  S
O492        C507   1.290       .  A
O492       Eu498   2.466       .  S
O493        C510   1.291       .  A
O493       Eu499   2.455       .  S
O494        C509   1.292       .  A
O494       Eu499   2.469       .  S
O495        C508   1.287       .  A
O495       Eu498   2.437       .  S
O496        C505   1.291       .  A
O496       Eu502   2.462       .  S
O497        C506   1.294       .  A
O497       Eu502   2.482       .  S
Eu498       O516   2.361   1_554  S
Eu498       O504   2.337   1_554  S
Eu499       O503   2.341       .  S
Eu499       O514   2.346       .  S
Eu500       O514   2.369       .  S
Eu500       O504   2.361       .  S
Eu501       O503   2.364       .  S
Eu501       O516   2.354       .  S
Eu502       O503   2.340       .  S
Eu502       O514   2.355       .  S
Eu502       O516   2.351       .  S
Eu502       O504   2.360       .  S
C505       C1342   1.497       .  S
C506       C1042   1.492       .  S
C507        C812   1.520       .  S
C508        C872   1.481       .  S
C509        C852   1.516       .  S
C510        C832   1.469       .  S
C511        C805   1.482       .  S
C512        C845   1.474       .  S
H513        O514   0.964       .  S
H515        O516   0.964       .  S
C517        C518   1.549   1_655  S
C517        C523   1.527   1_655  S
C517        C521   1.532       .  S
C517       C1195   1.538       .  S
C518        H525   1.083       .  S
C518        C519   1.381       .  D
C519        C520   1.549       .  S
C519        C835   1.509       .  S
C520        C524   1.551       .  S
C520        C522   1.546   1_455  S
C520        H526   1.107       .  S
C521        H527   1.087       .  S
C521        C522   1.357       .  D
C522        C945   1.502       .  S
C523        H528   1.081       .  S
C523        C524   1.354       .  D
C524        C792   1.487       .  S
C529        C530   1.556       .  S
C529        C535   1.538       .  S
C529        C533   1.523   1_655  S
C529       C1095   1.558       .  S
C530        H537   1.078       .  S
C530        C531   1.390       .  D
C531        C532   1.554       .  S
C531        C935   1.534       .  S
C532        C536   1.531       .  S
C532        C534   1.547   1_655  S
C532        H538   1.097       .  S
C533        H539   1.087       .  S
C533        C534   1.354       .  D
C534        C802   1.472       .  S
C535        H540   1.085       .  S
C535        C536   1.360       .  D
C536        C785   1.494       .  S
C541        C542   1.548       .  S
C541        C547   1.523       .  S
C541        C545   1.530       .  S
C541       C1632   1.550       .  S
C542        H549   1.085       .  S
C542        C543   1.387       .  D
C543        C544   1.563       .  S
C543        C855   1.536       .  S
C544        C548   1.547       .  S
C544        C546   1.551       .  S
C544        H550   1.100       .  S
C545        H551   1.084       .  S
C545        C546   1.357       .  D
C546        C902   1.475       .  S
C547        H552   1.087       .  S
C547        C548   1.362       .  D
C548        C772   1.502       .  S
C553        C554   1.538       .  S
C553        C559   1.535       .  S
C553        C557   1.555       .  S
C553       C1485   1.564       .  S
C554        H561   1.086       .  S
C554        C555   1.354       .  D
C555        C556   1.528       .  S
C555        C895   1.468       .  S
C556        C560   1.533       .  S
C556        C558   1.547       .  S
C556        H562   1.100       .  S
C557        H563   1.082       .  S
C557        C558   1.383       .  D
C558        C865   1.505       .  S
C559        H564   1.085       .  S
C559        C560   1.364       .  D
C560        C762   1.508       .  S
C565        C566   1.550   1_655  S
C565        C571   1.519       .  S
C565        C569   1.537       .  S
C565       C1085   1.546       .  S
C566        H573   1.085       .  S
C566        C567   1.384       .  D
C567        C568   1.565   1_455  S
C567        C815   1.530       .  S
C568        C572   1.557       .  S
C568        C570   1.540       .  S
C568        H574   1.104       .  S
C569        H575   1.085       .  S
C569        C570   1.359       .  D
C570        C922   1.484       .  S
C571        H576   1.087       .  S
C571        C572   1.351       .  D
C572        C755   1.504       .  S
C577        C578   1.550       .  S
C577        C583   1.535       .  S
C577        C581   1.535   1_655  S
C577       C1185   1.559       .  S
C578        H585   1.072       .  S
C578        C579   1.375       .  D
C579        C580   1.546       .  S
C579        C952   1.507       .  S
C580        C584   1.543       .  S
C580        C582   1.551   1_655  S
C580        H586   1.104       .  S
C581        H587   1.086       .  S
C581        C582   1.364       .  D
C582        C825   1.496       .  S
C583        H588   1.087       .  S
C583        C584   1.366       .  D
C584        C742   1.511       .  S
C589        C590   1.556       .  S
C589        C595   1.516       .  S
C589        C593   1.563       .  S
C589       C1622   1.567       .  S
C590        H597   1.081       .  S
C590        C591   1.384       .  D
C591        C592   1.550       .  S
C591        C912   1.535       .  S
C592        C596   1.552       .  S
C592        C594   1.527       .  S
C592        H598   1.097       .  S
C593        H599   1.083       .  S
C593        C594   1.376       .  D
C594        C842   1.510       .  S
C595        H600   1.088       .  S
C595        C596   1.350       .  D
C596        C732   1.476       .  S
C601        C602   1.539       .  S
C601        C607   1.525       .  S
C601        C605   1.547       .  S
C601       C1475   1.550       .  S
C602        H609   1.085       .  S
C602        C603   1.377       .  D
C603        C604   1.546       .  S
C603        C875   1.506       .  S
C604        C608   1.545       .  S
C604        C606   1.554       .  S
C604        H610   1.105       .  S
C605        H611   1.079       .  S
C605        C606   1.370       .  D
C606        C882   1.504       .  S
C607        H612   1.087       .  S
C607        C608   1.353       .  D
C608        C722   1.493       .  S
O613        C624   1.314       .  A
O613       Eu649   2.598       .  S
O614        C625   1.297       .  A
O614       Eu648   2.499       .  S
O615        C626   1.301       .  A
O615       Eu621   2.534       .  S
O616        C627   1.298       .  A
O616       Eu621   2.520       .  S
O617        C627   1.281       .  A
O617       Eu651   2.397       .  S
O618        C626   1.279       .  A
O618       Eu650   2.403       .  S
O619        C625   1.283       .  A
O619       Eu621   2.401       .  S
O620        C624   1.271       .  A
O620       Eu621   2.361       .  S
Eu621       O631   2.354       .  S
Eu621       O623   2.338       .  S
Eu621       O622   2.354       .  S
Eu621       O629   2.337       .  S
O622       Eu651   2.363       .  S
O622       Eu648   2.364       .  S
O623       Eu649   2.343       .  S
O623       Eu650   2.349       .  S
C624       C1552   1.514       .  S
C625        C735   1.469       .  S
C626       C1075   1.511       .  S
C627       C1315   1.484       .  S
H628        O629   0.964       .  S
O629       Eu650   2.335       .  S
O629       Eu648   2.364       .  S
H630        O631   0.963       .  S
O631       Eu649   2.331       .  S
O631       Eu651   2.331       .  S
O632        C655   1.307       .  A
O632       Eu648   2.556       .  S
O633        C656   1.304       .  A
O633       Eu649   2.534       .  S
O634        C657   1.303       .  A
O634       Eu650   2.536       .  S
O635        C658   1.294       .  A
O635       Eu651   2.494       .  S
O636        C659   1.303       .  A
O636       Eu651   2.534       .  S
O637        C660   1.299       .  A
O637       Eu650   2.514       .  S
O638        C661   1.306       .  A
O638       Eu652   2.559       .  S
O639        C662   1.303       .  A
O639       Eu652   2.540       .  S
O640        C661   1.278       .  A
O640       Eu650   2.384       .  S
O641        C662   1.275       .  A
O641       Eu651   2.395       .  S
O642        C657   1.279       .  A
O642       Eu648   2.375       .  S
O643        C660   1.277       .  A
O643       Eu649   2.371       .  S
O644        C659   1.277       .  A
O644       Eu649   2.370       .  S
O645        C658   1.285       .  A
O645       Eu648   2.420       .  S
O646        C655   1.272       .  A
O646       Eu652   2.376       .  S
O647        C656   1.281       .  A
O647       Eu652   2.389       .  S
Eu648       O666   2.332       .  S
Eu648       O654   2.340       .  S
Eu649       O653   2.352       .  S
Eu649       O664   2.378       .  S
Eu650       O664   2.361       .  S
Eu650       O654   2.352       .  S
Eu651       O653   2.335       .  S
Eu651       O666   2.351       .  S
Eu652       O653   2.352       .  S
Eu652       O664   2.360       .  S
Eu652       O666   2.337       .  S
Eu652       O654   2.344       .  S
C655       C1295   1.506       .  S
C656        C765   1.480       .  S
C657        C775   1.487       .  S
C658       C1052   1.471       .  S
C659        C725   1.485       .  S
C660       C1015   1.462       .  S
C661       C1375   1.489       .  S
C662        C992   1.504       .  S
H663        O664   0.965       .  S
H665        O666   0.965       .  S
O667        C678   1.302       .  A
O667       Eu703   2.522       .  S
O668        C679   1.297   1_655  A
O668       Eu702   2.498       .  S
O669        C680   1.302       .  A
O669       Eu675   2.541       .  S
O670        C681   1.301       .  A
O670       Eu675   2.519   1_545  S
O671        C681   1.277       .  A
O671       Eu705   2.369   1_556  S
O672        C680   1.271   1_655  A
O672       Eu704   2.373       .  S
O673        C679   1.287   1_565  A
O673       Eu675   2.427       .  S
O674        C678   1.284   1_556  A
O674       Eu675   2.423       .  S
Eu675       O685   2.355   1_566  S
Eu675       O677   2.350       .  S
Eu675       O676   2.371   1_565  S
Eu675       O683   2.350   1_455  S
O676       Eu705   2.376   1_556  S
O676       Eu702   2.377   1_455  S
O677       Eu703   2.324   1_556  S
O677       Eu704   2.352   1_455  S
C678       C1415   1.495       .  S
C679        C965   1.488       .  S
C680        C795   1.512       .  S
C681       C1352   1.466       .  S
H682        O683   0.966       .  S
O683       Eu704   2.348       .  S
O683       Eu702   2.356   1_565  S
H684        O685   0.963       .  S
O685       Eu703   2.333   1_545  S
O685       Eu705   2.343       .  S
O686        C709   1.305       .  A
O686       Eu702   2.547       .  S
O687        C710   1.296       .  A
O687       Eu703   2.491   1_655  S
O688        C711   1.300       .  A
O688       Eu704   2.525       .  S
O689        C712   1.299       .  A
O689       Eu705   2.519   1_556  S
O690        C713   1.306       .  A
O690       Eu705   2.560       .  S
O691        C714   1.298       .  A
O691       Eu704   2.519   1_554  S
O692        C715   1.294       .  A
O692       Eu706   2.480   1_565  S
O693        C716   1.303       .  A
O693       Eu706   2.542       .  S
O694        C715   1.286       .  A
O694       Eu704   2.423   1_554  S
O695        C716   1.274   1_455  A
O695       Eu705   2.386       .  S
O696        C711   1.288   1_545  A
O696       Eu702   2.434       .  S
O697        C714   1.275       .  A
O697       Eu703   2.383   1_655  S
O698        C713   1.277       .  A
O698       Eu703   2.370   1_545  S
O699        C712   1.287   1_655  A
O699       Eu702   2.434       .  S
O700        C709   1.278   1_554  A
O700       Eu706   2.376       .  S
O701        C710   1.286   1_545  A
O701       Eu706   2.424       .  S
Eu702       O720   2.358       .  S
Eu702       O708   2.346       .  S
Eu703       O707   2.342   1_465  S
Eu703       O718   2.355   1_455  S
Eu704       O718   2.352   1_556  S
Eu704       O708   2.349   1_565  S
Eu705       O707   2.326   1_455  S
Eu705       O720   2.349   1_454  S
Eu706       O707   2.330       .  S
Eu706       O718   2.361   1_545  S
Eu706       O720   2.335   1_554  S
Eu706       O708   2.366   1_554  S
C709       C1332   1.502       .  S
C710       C1035   1.472       .  S
C711       C1025   1.490       .  S
C712        C782   1.499   1_455  S
C713        C972   1.500       .  S
C714        C745   1.505       .  S
C715       C1395   1.470       .  S
C716        C752   1.506       .  S
H717        O718   0.965       .  S
H719        O720   0.971       .  S
C721        C722   1.411       .  A
C721        C726   1.400       .  A
C721       Br728   1.940       .  S
C722        C723   1.416       .  A
C723        C724   1.418       .  A
C723       Br730   1.924       .  S
C724        C725   1.411       .  A
C724       Br729   1.931       .  S
C725        C726   1.416       .  A
C726       Br727   1.934       .  S
C731        C732   1.404       .  A
C731        C736   1.401       .  A
C731       Br738   1.935       .  S
C732        C733   1.415       .  A
C733        C734   1.406       .  A
C733       Br740   1.935       .  S
C734        C735   1.404       .  A
C734       Br739   1.924       .  S
C735        C736   1.413       .  A
C736       Br737   1.926       .  S
C741        C742   1.426       .  A
C741        C746   1.423       .  A
C741       Br748   1.922       .  S
C742        C743   1.409   1_655  A
C743        C744   1.393   1_455  A
C743       Br750   1.928       .  S
C744        C745   1.421       .  A
C744       Br749   1.946   1_655  S
C745        C746   1.414       .  A
C746       Br747   1.928       .  S
C751        C752   1.409       .  A
C751        C756   1.416       .  A
C751       Br758   1.934       .  S
C752        C753   1.431       .  A
C753        C754   1.406       .  A
C753       Br760   1.924   1_655  S
C754        C755   1.404       .  A
C754       Br759   1.941   1_655  S
C755        C756   1.428       .  A
C756       Br757   1.932       .  S
C761        C762   1.427       .  A
C761        C766   1.417       .  A
C761       Br768   1.932       .  S
C762        C763   1.420       .  A
C763        C764   1.398       .  A
C763       Br770   1.936       .  S
C764        C765   1.408       .  A
C764       Br769   1.928       .  S
C765        C766   1.405       .  A
C766       Br767   1.923       .  S
C771        C772   1.403       .  A
C771        C776   1.395       .  A
C771       Br778   1.924       .  S
C772        C773   1.417       .  A
C773        C774   1.420       .  A
C773       Br780   1.919       .  S
C774        C775   1.412       .  A
C774       Br779   1.927       .  S
C775        C776   1.413       .  A
C776       Br777   1.926       .  S
C781        C782   1.414   1_455  A
C781        C786   1.413       .  A
C781       Br788   1.929       .  S
C782        C783   1.421       .  A
C783        C784   1.404       .  A
C783       Br790   1.915       .  S
C784        C785   1.401       .  A
C784       Br789   1.932       .  S
C785        C786   1.410   1_655  A
C786       Br787   1.917       .  S
C791        C792   1.388   1_655  A
C791        C796   1.395       .  A
C791       Br798   1.925       .  S
C792        C793   1.419       .  A
C793        C794   1.419       .  A
C793       Br800   1.932       .  S
C794        C795   1.421       .  A
C794       Br799   1.929       .  S
C795        C796   1.436   1_455  A
C796       Br797   1.943       .  S
C801        C802   1.399       .  A
C801        C806   1.402       .  A
C801       Br808   1.934       .  S
C802        C803   1.406       .  A
C803        C804   1.406       .  A
C803       Br810   1.935       .  S
C804        C805   1.418       .  A
C804       Br809   1.934       .  S
C805        C806   1.420       .  A
C806       Br807   1.933       .  S
C811        C812   1.422       .  A
C811        C816   1.409       .  A
C811       Br818   1.936       .  S
C812        C813   1.426       .  A
C813        C814   1.423       .  A
C813       Br820   1.941       .  S
C814        C815   1.424       .  A
C814       Br819   1.924   1_455  S
C815        C816   1.412       .  A
C816       Br817   1.924       .  S
C821        C822   1.413       .  A
C821        C826   1.415       .  A
C821       Br828   1.932       .  S
C822        C823   1.419       .  A
C823        C824   1.412       .  A
C823       Br830   1.930       .  S
C824        C825   1.406       .  A
C824       Br829   1.929       .  S
C825        C826   1.417       .  A
C826       Br827   1.933       .  S
C831        C832   1.399       .  A
C831        C836   1.409       .  A
C831       Br838   1.920       .  S
C832        C833   1.395       .  A
C833        C834   1.398       .  A
C833       Br840   1.921       .  S
C834        C835   1.423       .  A
C834       Br839   1.928       .  S
C835        C836   1.428       .  A
C836       Br837   1.927       .  S
C841        C842   1.420       .  A
C841        C846   1.413       .  A
C841       Br848   1.926       .  S
C842        C843   1.427       .  A
C843        C844   1.405       .  A
C843       Br850   1.920       .  S
C844        C845   1.399       .  A
C844       Br849   1.938       .  S
C845        C846   1.406       .  A
C846       Br847   1.932       .  S
C851        C852   1.424       .  A
C851        C856   1.426       .  A
C851       Br858   1.941       .  S
C852        C853   1.417       .  A
C853        C854   1.407       .  A
C853       Br860   1.939       .  S
C854        C855   1.417       .  A
C854       Br859   1.923       .  S
C855        C856   1.431       .  A
C856       Br857   1.932       .  S
C861        C862   1.416       .  A
C861        C866   1.400       .  A
C861       Br868   1.936       .  S
C862        C863   1.428       .  A
C863        C864   1.416       .  A
C863       Br870   1.935       .  S
C864        C865   1.409       .  A
C864       Br869   1.932       .  S
C865        C866   1.408       .  A
C866       Br867   1.916       .  S
C871        C872   1.409       .  A
C871        C876   1.401       .  A
C871       Br878   1.938       .  S
C872        C873   1.409       .  A
C873        C874   1.404       .  A
C873       Br880   1.929       .  S
C874        C875   1.422       .  A
C874       Br879   1.925       .  S
C875        C876   1.419       .  A
C876       Br877   1.919       .  S
C881        C882   1.413       .  A
C881        C886   1.414       .  A
C881       Br888   1.926       .  S
C882        C883   1.423       .  A
C883        C884   1.412       .  A
C883       Br890   1.930       .  S
C884        C885   1.404       .  A
C884       Br889   1.929       .  S
C885        C886   1.408       .  A
C886       Br887   1.923       .  S
C891        C892   1.418       .  A
C891        C896   1.400       .  A
C891       Br898   1.941       .  S
C892        C893   1.414       .  A
C893        C894   1.402       .  A
C893       Br900   1.929       .  S
C894        C895   1.402       .  A
C894       Br899   1.933       .  S
C895        C896   1.404       .  A
C896       Br897   1.922       .  S
C901        C902   1.406       .  A
C901        C906   1.406       .  A
C901       Br908   1.933       .  S
C902        C903   1.409       .  A
C903        C904   1.402       .  A
C903       Br910   1.932       .  S
C904        C905   1.404       .  A
C904       Br909   1.913       .  S
C905        C906   1.419       .  A
C906       Br907   1.928       .  S
C911        C912   1.434       .  A
C911        C916   1.414       .  A
C911       Br918   1.930       .  S
C912        C913   1.434       .  A
C913        C914   1.417       .  A
C913       Br920   1.935       .  S
C914        C915   1.406       .  A
C914       Br919   1.932       .  S
C915        C916   1.403       .  A
C916       Br917   1.936       .  S
C921        C922   1.406       .  A
C921        C926   1.407       .  A
C921       Br928   1.926       .  S
C922        C923   1.412       .  A
C923        C924   1.408       .  A
C923       Br930   1.936       .  S
C924        C925   1.414       .  A
C924       Br929   1.927       .  S
C925        C926   1.416       .  A
C926       Br927   1.934       .  S
C931        C932   1.414       .  A
C931        C936   1.416       .  A
C931       Br938   1.944       .  S
C932        C933   1.414       .  A
C933        C934   1.410       .  A
C933       Br940   1.937       .  S
C934        C935   1.426       .  A
C934       Br939   1.936       .  S
C935        C936   1.436       .  A
C936       Br937   1.930       .  S
C941        C942   1.416       .  A
C941        C946   1.412       .  A
C941       Br948   1.941       .  S
C942        C943   1.420       .  A
C943        C944   1.411       .  A
C943       Br950   1.934       .  S
C944        C945   1.412       .  A
C944       Br949   1.935       .  S
C945        C946   1.416       .  A
C946       Br947   1.919       .  S
C951        C952   1.417       .  A
C951        C956   1.410       .  A
C951       Br958   1.929       .  S
C952        C953   1.418       .  A
C953        C954   1.411       .  A
C953       Br960   1.942       .  S
C954        C955   1.426       .  A
C954       Br959   1.940       .  S
C955        C956   1.422       .  A
C956       Br957   1.941       .  S
C961        C962   1.400   1_565  A
C961        C966   1.399       .  A
C961       Br968   1.926       .  S
C962        C963   1.413       .  A
C963        C964   1.414       .  A
C963       Br970   1.918       .  S
C964        C965   1.412       .  A
C964       Br969   1.929       .  S
C965        C966   1.417   1_545  A
C966       Br967   1.926       .  S
C971        C972   1.413       .  A
C971        C976   1.426       .  A
C971       Br978   1.930       .  S
C972        C973   1.419       .  A
C973        C974   1.401   1_545  A
C973       Br980   1.934   1_545  S
C974        C975   1.409   1_565  A
C974       Br979   1.939       .  S
C975        C976   1.421       .  A
C976       Br977   1.922       .  S
C981        C982   1.432       .  A
C981        C986   1.416       .  A
C981       Br988   1.939       .  S
C982        C983   1.414       .  A
C983        C984   1.400       .  A
C983       Br990   1.916       .  S
C984        C985   1.416       .  A
C984       Br989   1.936       .  S
C985        C986   1.411       .  A
C986       Br987   1.938       .  S
C991        C992   1.434       .  A
C991        C996   1.400       .  A
C991       Br998   1.935       .  S
C992        C993   1.415       .  A
C993        C994   1.417       .  A
C993      Br1000   1.931       .  S
C994        C995   1.419       .  A
C994       Br999   1.927       .  S
C995        C996   1.397       .  A
C996       Br997   1.931       .  S
C1001      C1002   1.420       .  A
C1001      C1006   1.411       .  A
C1001     Br1008   1.936       .  S
C1002      C1003   1.407       .  A
C1003      C1004   1.411       .  A
C1003     Br1010   1.932       .  S
C1004      C1005   1.414       .  A
C1004     Br1009   1.906       .  S
C1005      C1006   1.414       .  A
C1006     Br1007   1.927       .  S
C1011      C1012   1.419       .  A
C1011      C1016   1.401       .  A
C1011     Br1018   1.943       .  S
C1012      C1013   1.405       .  A
C1013      C1014   1.403       .  A
C1013     Br1020   1.926       .  S
C1014      C1015   1.410       .  A
C1014     Br1019   1.933       .  S
C1015      C1016   1.407       .  A
C1016     Br1017   1.925       .  S
C1021      C1022   1.416   1_545  A
C1021      C1026   1.397   1_545  A
C1021     Br1028   1.906       .  S
C1022      C1023   1.422       .  A
C1023      C1024   1.430       .  A
C1023     Br1030   1.922       .  S
C1024      C1025   1.415       .  A
C1024     Br1029   1.919       .  S
C1025      C1026   1.391       .  A
C1026     Br1027   1.927       .  S
C1031      C1032   1.418       .  A
C1031      C1036   1.409       .  A
C1031     Br1038   1.921       .  S
C1032      C1033   1.420   1_545  A
C1033      C1034   1.407       .  A
C1033     Br1040   1.921       .  S
C1034      C1035   1.399       .  A
C1034     Br1039   1.923       .  S
C1035      C1036   1.403   1_565  A
C1036     Br1037   1.923       .  S
C1041      C1042   1.411       .  A
C1041      C1046   1.414       .  A
C1041     Br1048   1.931       .  S
C1042      C1043   1.411       .  A
C1043      C1044   1.407       .  A
C1043     Br1050   1.921       .  S
C1044      C1045   1.418       .  A
C1044     Br1049   1.941       .  S
C1045      C1046   1.423       .  A
C1046     Br1047   1.935       .  S
C1051      C1052   1.400       .  A
C1051      C1056   1.411       .  A
C1051     Br1058   1.929       .  S
C1052      C1053   1.404       .  A
C1053      C1054   1.405       .  A
C1053     Br1060   1.932       .  S
C1054      C1055   1.418       .  A
C1054     Br1059   1.919       .  S
C1055      C1056   1.424       .  A
C1056     Br1057   1.923       .  S
C1061      C1062   1.423       .  A
C1061      C1066   1.394       .  A
C1061     Br1068   1.937       .  S
C1062      C1063   1.422       .  A
C1063      C1064   1.410       .  A
C1063     Br1070   1.932       .  S
C1064      C1065   1.407       .  A
C1064     Br1069   1.932       .  S
C1065      C1066   1.396       .  A
C1066     Br1067   1.929       .  S
C1071      C1072   1.424       .  A
C1071      C1076   1.417       .  A
C1071     Br1078   1.928       .  S
C1072      C1073   1.406       .  A
C1073      C1074   1.407       .  A
C1073     Br1080   1.934       .  S
C1074      C1075   1.432       .  A
C1074     Br1079   1.937       .  S
C1075      C1076   1.414       .  A
C1076     Br1077   1.934       .  S
C1081      C1082   1.431       .  A
C1081      C1086   1.413       .  A
C1081     Br1088   1.954       .  S
C1082      C1083   1.422   1_655  A
C1083      C1084   1.407       .  A
C1083     Br1090   1.942       .  S
C1084      C1085   1.418   1_455  A
C1084     Br1089   1.930       .  S
C1085      C1086   1.429       .  A
C1086     Br1087   1.949       .  S
C1091      C1092   1.400   1_455  A
C1091      C1096   1.411       .  A
C1091     Br1098   1.925       .  S
C1092      C1093   1.408       .  A
C1093      C1094   1.416       .  A
C1093     Br1100   1.922       .  S
C1094      C1095   1.427       .  A
C1094     Br1099   1.936       .  S
C1095      C1096   1.437   1_655  A
C1096     Br1097   1.942       .  S
C1101      C1102   1.401       .  A
C1101      C1106   1.410       .  A
C1101     Br1108   1.928       .  S
C1102      C1103   1.402       .  A
C1103      C1104   1.414       .  A
C1103     Br1110   1.937       .  S
C1104      C1105   1.432       .  A
C1104     Br1109   1.928       .  S
C1105      C1106   1.431       .  A
C1106     Br1107   1.938       .  S
C1111      C1112   1.402       .  A
C1111      C1116   1.411       .  A
C1111     Br1118   1.933       .  S
C1112      C1113   1.401       .  A
C1113      C1114   1.406       .  A
C1113     Br1120   1.923       .  S
C1114      C1115   1.432       .  A
C1114     Br1119   1.943       .  S
C1115      C1116   1.425       .  A
C1116     Br1117   1.934       .  S
C1121      C1122   1.409       .  A
C1121      C1126   1.404       .  A
C1121     Br1128   1.939       .  S
C1122      C1123   1.410       .  A
C1123      C1124   1.401       .  A
C1123     Br1130   1.941       .  S
C1124      C1125   1.427       .  A
C1124     Br1129   1.932       .  S
C1125      C1126   1.427       .  A
C1126     Br1127   1.936       .  S
C1131      C1132   1.412       .  A
C1131      C1136   1.414       .  A
C1131     Br1138   1.922       .  S
C1132      C1133   1.418       .  A
C1133      C1134   1.418       .  A
C1133     Br1140   1.928       .  S
C1134      C1135   1.411       .  A
C1134     Br1139   1.927       .  S
C1135      C1136   1.416       .  A
C1136     Br1137   1.934       .  S
C1141      C1142   1.422       .  A
C1141      C1146   1.406       .  A
C1141     Br1148   1.935       .  S
C1142      C1143   1.429       .  A
C1143      C1144   1.407       .  A
C1143     Br1150   1.939       .  S
C1144      C1145   1.405       .  A
C1144     Br1149   1.939       .  S
C1145      C1146   1.403       .  A
C1146     Br1147   1.935       .  S
C1151      C1152   1.401       .  A
C1151      C1156   1.411       .  A
C1151     Br1158   1.935       .  S
C1152      C1153   1.409       .  A
C1153      C1154   1.421       .  A
C1153     Br1160   1.926       .  S
C1154      C1155   1.423       .  A
C1154     Br1159   1.930       .  S
C1155      C1156   1.438       .  A
C1156     Br1157   1.944       .  S
C1161      C1162   1.417       .  A
C1161      C1166   1.408       .  A
C1161     Br1168   1.928       .  S
C1162      C1163   1.418       .  A
C1163      C1164   1.415       .  A
C1163     Br1170   1.933       .  S
C1164      C1165   1.415       .  A
C1164     Br1169   1.935       .  S
C1165      C1166   1.403       .  A
C1166     Br1167   1.929       .  S
C1171      C1172   1.422       .  A
C1171      C1176   1.409       .  A
C1171     Br1178   1.942       .  S
C1172      C1173   1.417       .  A
C1173      C1174   1.408       .  A
C1173     Br1180   1.941       .  S
C1174      C1175   1.420       .  A
C1174     Br1179   1.927       .  S
C1175      C1176   1.419       .  A
C1176     Br1177   1.937       .  S
C1181      C1182   1.413   1_455  A
C1181      C1186   1.412       .  A
C1181     Br1188   1.936       .  S
C1182      C1183   1.418       .  A
C1183      C1184   1.411       .  A
C1183     Br1190   1.928       .  S
C1184      C1185   1.416       .  A
C1184     Br1189   1.929       .  S
C1185      C1186   1.426   1_655  A
C1186     Br1187   1.932       .  S
C1191      C1192   1.397       .  A
C1191      C1196   1.401       .  A
C1191     Br1198   1.931       .  S
C1192      C1193   1.401       .  A
C1193      C1194   1.405       .  A
C1193     Br1200   1.925       .  S
C1194      C1195   1.422       .  A
C1194     Br1199   1.930       .  S
C1195      C1196   1.428       .  A
C1196     Br1197   1.938       .  S
C1201      C1202   1.407       .  A
C1201      C1206   1.404       .  A
C1201     Br1208   1.934       .  S
C1202      C1203   1.414       .  A
C1203      C1204   1.412       .  A
C1203     Br1210   1.939       .  S
C1204      C1205   1.430       .  A
C1204     Br1209   1.929       .  S
C1205      C1206   1.419       .  A
C1206     Br1207   1.912       .  S
C1211      C1212   1.417       .  A
C1211      C1216   1.415       .  A
C1211     Br1218   1.931       .  S
C1212      C1213   1.405       .  A
C1213      C1214   1.407       .  A
C1213     Br1220   1.926       .  S
C1214      C1215   1.409       .  A
C1214     Br1219   1.924       .  S
C1215      C1216   1.411       .  A
C1216     Br1217   1.926       .  S
C1221      C1222   1.422       .  A
C1221      C1226   1.413       .  A
C1221     Br1228   1.937       .  S
C1222      C1223   1.427       .  A
C1223      C1224   1.423       .  A
C1223     Br1230   1.944       .  S
C1224      C1225   1.427       .  A
C1224     Br1229   1.931       .  S
C1225      C1226   1.421       .  A
C1226     Br1227   1.939       .  S
C1231      C1232   1.408       .  A
C1231      C1236   1.412       .  A
C1231     Br1238   1.934       .  S
C1232      C1233   1.404       .  A
C1233      C1234   1.408       .  A
C1233     Br1240   1.938       .  S
C1234      C1235   1.421       .  A
C1234     Br1239   1.915       .  S
C1235      C1236   1.416       .  A
C1236     Br1237   1.921       .  S
C1241      C1242   1.425       .  A
C1241      C1246   1.418       .  A
C1241     Br1248   1.928       .  S
C1242      C1243   1.414       .  A
C1243      C1244   1.422       .  A
C1243     Br1250   1.924       .  S
C1244      C1245   1.416       .  A
C1244     Br1249   1.927       .  S
C1245      C1246   1.410       .  A
C1246     Br1247   1.934       .  S
C1251      C1252   1.415       .  A
C1251      C1256   1.405       .  A
C1251     Br1258   1.948       .  S
C1252      C1253   1.413       .  A
C1253      C1254   1.408       .  A
C1253     Br1260   1.946       .  S
C1254      C1255   1.431       .  A
C1254     Br1259   1.935   1_565  S
C1255      C1256   1.428       .  A
C1256     Br1257   1.939       .  S
C1261      C1262   1.421       .  A
C1261      C1266   1.409       .  A
C1261     Br1268   1.943       .  S
C1262      C1263   1.428       .  A
C1263      C1264   1.416       .  A
C1263     Br1270   1.936       .  S
C1264      C1265   1.409       .  A
C1264     Br1269   1.936       .  S
C1265      C1266   1.409       .  A
C1266     Br1267   1.918   1_565  S
C1271      C1272   1.410       .  A
C1271      C1276   1.409       .  A
C1271     Br1278   1.932   1_455  S
C1272      C1273   1.411       .  A
C1273      C1274   1.412       .  A
C1273     Br1280   1.933       .  S
C1274      C1275   1.433       .  A
C1274     Br1279   1.939       .  S
C1275      C1276   1.433       .  A
C1276     Br1277   1.935       .  S
C1281      C1282   1.425       .  A
C1281      C1286   1.414       .  A
C1281     Br1288   1.938       .  S
C1282      C1283   1.423       .  A
C1283      C1284   1.407       .  A
C1283     Br1290   1.932       .  S
C1284      C1285   1.418       .  A
C1284     Br1289   1.942       .  S
C1285      C1286   1.417       .  A
C1286     Br1287   1.935       .  S
C1291      C1292   1.399       .  A
C1291      C1296   1.409       .  A
C1291     Br1298   1.928       .  S
C1292      C1293   1.416       .  A
C1293      C1294   1.413       .  A
C1293     Br1300   1.919       .  S
C1294      C1295   1.411       .  A
C1294     Br1299   1.933       .  S
C1295      C1296   1.437       .  A
C1296     Br1297   1.942       .  S
C1301      C1302   1.429       .  A
C1301      C1306   1.412       .  A
C1301     Br1308   1.932       .  S
C1302      C1303   1.416       .  A
C1303      C1304   1.413       .  A
C1303     Br1310   1.917       .  S
C1304      C1305   1.411       .  A
C1304     Br1309   1.929       .  S
C1305      C1306   1.406       .  A
C1306     Br1307   1.934       .  S
C1311      C1312   1.401       .  A
C1311      C1316   1.399       .  A
C1311     Br1318   1.938       .  S
C1312      C1313   1.420       .  A
C1313      C1314   1.413       .  A
C1313     Br1320   1.932       .  S
C1314      C1315   1.407       .  A
C1314     Br1319   1.928       .  S
C1315      C1316   1.415       .  A
C1316     Br1317   1.917       .  S
C1321      C1322   1.413   1_556  A
C1321      C1326   1.409       .  A
C1321     Br1328   1.943       .  S
C1322      C1323   1.413       .  A
C1323      C1324   1.403       .  A
C1323     Br1330   1.934       .  S
C1324      C1325   1.425       .  A
C1324     Br1329   1.937       .  S
C1325      C1326   1.428   1_554  A
C1326     Br1327   1.931       .  S
C1331      C1332   1.415   1_554  A
C1331      C1336   1.399       .  A
C1331     Br1338   1.928       .  S
C1332      C1333   1.407       .  A
C1333      C1334   1.418       .  A
C1333     Br1340   1.910       .  S
C1334      C1335   1.415       .  A
C1334     Br1339   1.926       .  S
C1335      C1336   1.410   1_556  A
C1336     Br1337   1.938       .  S
C1341      C1342   1.413       .  A
C1341      C1346   1.404       .  A
C1341     Br1348   1.925       .  S
C1342      C1343   1.411   1_556  A
C1343      C1344   1.416       .  A
C1343     Br1350   1.931       .  S
C1344      C1345   1.428       .  A
C1344     Br1349   1.936       .  S
C1345      C1346   1.414   1_554  A
C1346     Br1347   1.933       .  S
C1351      C1352   1.402       .  A
C1351      C1356   1.406       .  A
C1351     Br1358   1.927       .  S
C1352      C1353   1.416   1_556  A
C1353      C1354   1.398       .  A
C1353     Br1360   1.924       .  S
C1354      C1355   1.399   1_554  A
C1354     Br1359   1.936       .  S
C1355      C1356   1.416       .  A
C1356     Br1357   1.935       .  S
C1361      C1362   1.419       .  A
C1361      C1366   1.408       .  A
C1361     Br1368   1.934       .  S
C1362      C1363   1.419       .  A
C1363      C1364   1.415       .  A
C1363     Br1370   1.928       .  S
C1364      C1365   1.412       .  A
C1364     Br1369   1.928       .  S
C1365      C1366   1.409       .  A
C1366     Br1367   1.930       .  S
C1371      C1372   1.416       .  A
C1371      C1376   1.403       .  A
C1371     Br1378   1.944       .  S
C1372      C1373   1.412       .  A
C1373      C1374   1.413       .  A
C1373     Br1380   1.932       .  S
C1374      C1375   1.412       .  A
C1374     Br1379   1.912       .  S
C1375      C1376   1.410       .  A
C1376     Br1377   1.915       .  S
C1381      C1382   1.429       .  A
C1381      C1386   1.420       .  A
C1381     Br1388   1.934       .  S
C1382      C1383   1.431   1_556  A
C1383      C1384   1.407       .  A
C1383     Br1390   1.930       .  S
C1384      C1385   1.405   1_554  A
C1384     Br1389   1.937       .  S
C1385      C1386   1.419       .  A
C1386     Br1387   1.935       .  S
C1391      C1392   1.421       .  A
C1391      C1396   1.396       .  A
C1391     Br1398   1.917       .  S
C1392      C1393   1.428       .  A
C1393      C1394   1.418       .  A
C1393     Br1400   1.929   1_554  S
C1394      C1395   1.405       .  A
C1394     Br1399   1.926   1_564  S
C1395      C1396   1.397       .  A
C1396     Br1397   1.933       .  S
C1401      C1402   1.423   1_554  A
C1401      C1406   1.404       .  A
C1401     Br1408   1.937       .  S
C1402      C1403   1.428       .  A
C1403      C1404   1.399       .  A
C1403     Br1410   1.939       .  S
C1404      C1405   1.397       .  A
C1404     Br1409   1.930       .  S
C1405      C1406   1.405   1_556  A
C1406     Br1407   1.932       .  S
C1411      C1412   1.435       .  A
C1411      C1416   1.420       .  A
C1411     Br1418   1.938       .  S
C1412      C1413   1.394       .  A
C1413      C1414   1.394       .  A
C1413     Br1420   1.920       .  S
C1414      C1415   1.417       .  A
C1414     Br1419   1.909   1_554  S
C1415      C1416   1.410       .  A
C1416     Br1417   1.931       .  S
C1421      C1422   1.414   1_565  A
C1421      C1426   1.411       .  A
C1421     Br1428   1.931       .  S
C1422      C1423   1.409       .  A
C1423      C1424   1.404       .  A
C1423     Br1430   1.939       .  S
C1424      C1425   1.426       .  A
C1424     Br1429   1.938       .  S
C1425      C1426   1.413   1_545  A
C1426     Br1427   1.926       .  S
C1431      C1432   1.426       .  A
C1431      C1436   1.419       .  A
C1431     Br1438   1.939       .  S
C1432      C1433   1.418   1_545  A
C1433      C1434   1.409       .  A
C1433     Br1440   1.938       .  S
C1434      C1435   1.415   1_565  A
C1434     Br1439   1.928       .  S
C1435      C1436   1.421       .  A
C1436     Br1437   1.934       .  S
C1441      C1442   1.414       .  A
C1441      C1446   1.414       .  A
C1441     Br1448   1.922       .  S
C1442      C1443   1.413       .  A
C1443      C1444   1.413       .  A
C1443     Br1450   1.938       .  S
C1444      C1445   1.427       .  A
C1444     Br1449   1.939       .  S
C1445      C1446   1.421       .  A
C1446     Br1447   1.942       .  S
C1451      C1452   1.414       .  A
C1451      C1456   1.408       .  A
C1451     Br1458   1.933       .  S
C1452      C1453   1.415       .  A
C1453      C1454   1.406       .  A
C1453     Br1460   1.919       .  S
C1454      C1455   1.407       .  A
C1454     Br1459   1.936       .  S
C1455      C1456   1.410       .  A
C1456     Br1457   1.921       .  S
C1461      C1462   1.402       .  A
C1461      C1466   1.411       .  A
C1461     Br1468   1.925       .  S
C1462      C1463   1.400       .  A
C1463      C1464   1.411       .  A
C1463     Br1470   1.926       .  S
C1464      C1465   1.430       .  A
C1464     Br1469   1.917       .  S
C1465      C1466   1.434       .  A
C1466     Br1467   1.931       .  S
C1471      C1472   1.412       .  A
C1471      C1476   1.404       .  A
C1471     Br1478   1.944       .  S
C1472      C1473   1.416       .  A
C1473      C1474   1.410       .  A
C1473     Br1480   1.932       .  S
C1474      C1475   1.417       .  A
C1474     Br1479   1.931       .  S
C1475      C1476   1.426       .  A
C1476     Br1477   1.931       .  S
C1481      C1482   1.426       .  A
C1481      C1486   1.415       .  A
C1481     Br1488   1.940       .  S
C1482      C1483   1.415       .  A
C1483      C1484   1.415       .  A
C1483     Br1490   1.945       .  S
C1484      C1485   1.441       .  A
C1484     Br1489   1.946       .  S
C1485      C1486   1.424       .  A
C1486     Br1487   1.933       .  S
C1491      C1492   1.407       .  A
C1491      C1496   1.409       .  A
C1491     Br1498   1.919       .  S
C1492      C1493   1.406       .  A
C1493      C1494   1.412       .  A
C1493     Br1500   1.929       .  S
C1494      C1495   1.423       .  A
C1494     Br1499   1.933       .  S
C1495      C1496   1.411       .  A
C1496     Br1497   1.925       .  S
C1501      C1502   1.403       .  A
C1501      C1506   1.408       .  A
C1501     Br1508   1.927       .  S
C1502      C1503   1.404       .  A
C1503      C1504   1.396       .  A
C1503     Br1510   1.940       .  S
C1504      C1505   1.415       .  A
C1504     Br1509   1.917       .  S
C1505      C1506   1.421       .  A
C1506     Br1507   1.934       .  S
C1511      C1512   1.405       .  A
C1511      C1516   1.409       .  A
C1511     Br1518   1.918       .  S
C1512      C1513   1.407       .  A
C1513      C1514   1.414       .  A
C1513     Br1520   1.925       .  S
C1514      C1515   1.423       .  A
C1514     Br1519   1.935       .  S
C1515      C1516   1.424       .  A
C1516     Br1517   1.939       .  S
C1521      C1522   1.403       .  A
C1521      C1526   1.414       .  A
C1521     Br1528   1.930       .  S
C1522      C1523   1.405       .  A
C1523      C1524   1.421       .  A
C1523     Br1530   1.936       .  S
C1524      C1525   1.436       .  A
C1524     Br1529   1.925       .  S
C1525      C1526   1.434       .  A
C1526     Br1527   1.937       .  S
C1531      C1532   1.409       .  A
C1531      C1536   1.401       .  A
C1531     Br1538   1.930       .  S
C1532      C1533   1.432       .  A
C1533      C1534   1.408       .  A
C1533     Br1540   1.936       .  S
C1534      C1535   1.402       .  A
C1534     Br1539   1.929       .  S
C1535      C1536   1.411       .  A
C1536     Br1537   1.916       .  S
C1541      C1542   1.407       .  A
C1541      C1546   1.412       .  A
C1541     Br1548   1.935       .  S
C1542      C1543   1.398       .  A
C1543      C1544   1.404       .  A
C1543     Br1550   1.920       .  S
C1544      C1545   1.417       .  A
C1544     Br1549   1.927       .  S
C1545      C1546   1.419       .  A
C1546     Br1547   1.922       .  S
C1551      C1552   1.442       .  A
C1551      C1556   1.407       .  A
C1551     Br1558   1.930       .  S
C1552      C1553   1.412       .  A
C1553      C1554   1.417       .  A
C1553     Br1560   1.931       .  S
C1554      C1555   1.425       .  A
C1554     Br1559   1.936       .  S
C1555      C1556   1.394       .  A
C1556     Br1557   1.944       .  S
C1561      C1562   1.425   1_565  A
C1561      C1566   1.416       .  A
C1561     Br1568   1.930       .  S
C1562      C1563   1.412       .  A
C1563      C1564   1.398       .  A
C1563     Br1570   1.940       .  S
C1564      C1565   1.411       .  A
C1564     Br1569   1.919       .  S
C1565      C1566   1.411   1_545  A
C1566     Br1567   1.933       .  S
C1571      C1572   1.410   1_565  A
C1571      C1576   1.415       .  A
C1571     Br1578   1.931       .  S
C1572      C1573   1.396       .  A
C1573      C1574   1.399       .  A
C1573     Br1580   1.937       .  S
C1574      C1575   1.426       .  A
C1574     Br1579   1.921       .  S
C1575      C1576   1.427   1_545  A
C1576     Br1577   1.936       .  S
C1581      C1582   1.427       .  A
C1581      C1586   1.404       .  A
C1581     Br1588   1.929       .  S
C1582      C1583   1.417       .  A
C1583      C1584   1.407       .  A
C1583     Br1590   1.928       .  S
C1584      C1585   1.405       .  A
C1584     Br1589   1.929       .  S
C1585      C1586   1.400       .  A
C1586     Br1587   1.940       .  S
C1591      C1592   1.419       .  A
C1591      C1596   1.409       .  A
C1591     Br1598   1.938       .  S
C1592      C1593   1.426       .  A
C1593      C1594   1.427       .  A
C1593     Br1600   1.936       .  S
C1594      C1595   1.423       .  A
C1594     Br1599   1.926       .  S
C1595      C1596   1.418       .  A
C1596     Br1597   1.929       .  S
C1601      C1602   1.422       .  A
C1601      C1606   1.414       .  A
C1601     Br1608   1.936       .  S
C1602      C1603   1.421       .  A
C1603      C1604   1.401       .  A
C1603     Br1610   1.942       .  S
C1604      C1605   1.409       .  A
C1604     Br1609   1.921       .  S
C1605      C1606   1.413       .  A
C1606     Br1607   1.931       .  S
C1611      C1612   1.426       .  A
C1611      C1616   1.410       .  A
C1611     Br1618   1.930       .  S
C1612      C1613   1.429       .  A
C1613      C1614   1.402       .  A
C1613     Br1620   1.938       .  S
C1614      C1615   1.396       .  A
C1614     Br1619   1.931       .  S
C1615      C1616   1.403       .  A
C1616     Br1617   1.933       .  S
C1621      C1622   1.425       .  A
C1621      C1626   1.415       .  A
C1621     Br1628   1.940       .  S
C1622      C1623   1.430       .  A
C1623      C1624   1.424       .  A
C1623     Br1630   1.938       .  S
C1624      C1625   1.420       .  A
C1624     Br1629   1.940       .  S
C1625      C1626   1.424       .  A
C1626     Br1627   1.939       .  S
C1631      C1632   1.426       .  A
C1631      C1636   1.413       .  A
C1631     Br1638   1.917       .  S
C1632      C1633   1.423       .  A
C1633      C1634   1.399       .  A
C1633     Br1640   1.938       .  S
C1634      C1635   1.411       .  A
C1634     Br1639   1.934       .  S
C1635      C1636   1.410       .  A
C1636     Br1637   1.939       .  S
C1641      C1642   1.416       .  A
C1641      C1646   1.409       .  A
C1641     Br1648   1.924       .  S
C1642      C1643   1.418       .  A
C1643      C1644   1.402       .  A
C1643     Br1650   1.914       .  S
C1644      C1645   1.404       .  A
C1644     Br1649   1.940       .  S
C1645      C1646   1.405       .  A
C1646     Br1647   1.932       .  S
C1651      C1652   1.403       .  A
C1651      C1656   1.414       .  A
C1651     Br1658   1.938       .  S
C1652      C1653   1.407       .  A
C1653      C1654   1.413       .  A
C1653     Br1660   1.913       .  S
C1654      C1655   1.412       .  A
C1654     Br1659   1.922       .  S
C1655      C1656   1.438       .  A
C1656     Br1657   1.940       .  S
C1661      C1662   1.424       .  A
C1661      C1666   1.415       .  A
C1661     Br1668   1.934       .  S
C1662      C1663   1.415       .  A
C1663      C1664   1.407       .  A
C1663     Br1670   1.940       .  S
C1664      C1665   1.411       .  A
C1664     Br1669   1.916   1_556  S
C1665      C1666   1.410       .  A
C1666     Br1667   1.934       .  S
C1671      C1672   1.406       .  A
C1671      C1676   1.404       .  A
C1671     Br1678   1.929       .  S
C1672      C1673   1.406       .  A
C1673      C1674   1.409       .  A
C1673     Br1680   1.932       .  S
C1674      C1675   1.425       .  A
C1674     Br1679   1.920       .  S
C1675      C1676   1.427       .  A
C1676     Br1677   1.923       .  S
