geometry optimzed in LAMMPS
_audit_creation_date              2020-11-30 
_audit_creation_method            'lammps2cif' 
_symmetry_space_group_name_H-M    'P1' 
_symmetry_Int_Tables_number       1 
_symmetry_cell_setting            triclinic 
loop_ 
_symmetry_equiv_pos_as_xyz 
  x,y,z 
_cell_length_a                    46.79196003 
_cell_length_b                    46.62946264769269 
_cell_length_c                    46.73473017207546 
_cell_angle_alpha                 89.90535271743616 
_cell_angle_beta                  90.2164163273523 
_cell_angle_gamma                 90.99315814851188 
loop_ 
_atom_site_label 
_atom_site_type_symbol 
_atom_site_fract_x 
_atom_site_fract_y 
_atom_site_fract_z 
_atom_site_charge 
O1          O  0.52655189  0.04231079  0.82994337    -0.85900
O2          O  0.52569841  0.04487077  0.66928686    -0.86100
O3          O  0.58267012  0.03854728  0.74672056    -0.87800
O4          O  0.51538152  0.10107448  0.75178524    -0.86500
O5          O  0.46639107  0.09880376  0.75198396    -0.86100
O6          O  0.58239379  0.98933982  0.74665783    -0.87500
O7          O  0.54888276  0.07109095  0.70403274    -0.86000
O8          O  0.55012923  0.06890879  0.79567225    -0.85600
Zr9        Zr  0.53254238  0.05219798  0.74970516     2.84300
O10         O  0.49171467  0.05102132  0.72057357    -1.07500
O11         O  0.53324982  0.01131648  0.77889186    -1.08300
C12         C  0.54514888  0.06154494  0.82178515     1.07200
C13         C  0.54333151  0.06480374  0.67771434     1.07100
C14         C  0.59509705  0.01411037  0.74470943     1.10100
C15         C  0.49054574  0.11260394  0.75311600     1.07900
H16         H  0.54993433  0.01196982  0.70841640     0.33400
O17         O  0.53325302  0.01150607  0.72049576    -1.28500
H18         H  0.49119537  0.06719052  0.79062634     0.33100
O19         O  0.49146128  0.05056871  0.77837738    -1.30200
O20         O  0.46460091  0.97388734  0.66554718    -0.85900
O21         O  0.45673227  0.97611792  0.82850185    -0.87400
O22         O  0.54792445  0.95232276  0.70274225    -0.86000
O23         O  0.43630434  0.06992580  0.70401855    -0.86100
O24         O  0.43244073  0.06329714  0.79603161    -0.85800
O25         O  0.55142571  0.95730779  0.79723819    -0.85600
O26         O  0.46994821  0.91839264  0.75351106    -0.85900
O27         O  0.40164533  0.98196276  0.74435971    -0.85400
O28         O  0.51913268  0.92088003  0.75513713    -0.86500
O29         O  0.40142180  0.03128371  0.74422665    -0.85600
O30         O  0.52609807  0.97855670  0.66750574    -0.86000
O31         O  0.52423231  0.97792602  0.83207707    -0.85700
O32         O  0.45988192  0.04209485  0.83072506    -0.85400
O33         O  0.46010183  0.04525971  0.66933105    -0.85800
O34         O  0.44152075  0.94719167  0.69996796    -0.86100
O35         O  0.43219808  0.95110650  0.79374907    -0.87400
Zr36       Zr  0.49268555  0.01045461  0.69119562     2.83100
Zr37       Zr  0.49177445  0.00948389  0.80693105     2.83500
Zr38       Zr  0.53360985  0.97074086  0.74972817     2.84100
Zr39       Zr  0.45066301  0.04891385  0.74918285     2.83400
Zr40       Zr  0.45176656  0.96710250  0.74787970     2.84200
O41         O  0.45095759  0.00770655  0.77758728    -1.08000
O42         O  0.49318516  0.96934059  0.72010420    -1.07500
C43         C  0.44831355  0.95269140  0.67357040     1.07100
C44         C  0.43735562  0.95767805  0.82016058     1.09800
C45         C  0.54302413  0.95867354  0.67615821     1.07300
C46         C  0.44247221  0.06472427  0.67770865     1.07700
C47         C  0.43987287  0.05885216  0.82234610     1.07300
C48         C  0.54476849  0.96188311  0.82372408     1.06800
C49         C  0.49494882  0.90728362  0.75649888     1.07200
C50         C  0.38892375  0.00638344  0.74271743     1.06800
H51         H  0.49247004  0.95269605  0.79028795     0.33400
O52         O  0.49229825  0.96908532  0.77774883    -1.29100
H53         H  0.43492408  0.00804403  0.70650415     0.33500
O54         O  0.45126114  0.00846004  0.71912946    -1.30500
C55         C  0.67583705  0.21083394  0.50195129     0.87000
C56         C  0.66435932  0.18910291  0.52450046    -0.53200
C57         C  0.63535487  0.18643883  0.52521127     0.10000
C58         C  0.62000510  0.20580923  0.50381643     0.20900
C59         C  0.66192401  0.20067278  0.47385971    -0.53900
C60         C  0.63275663  0.19746880  0.47472350     0.10100
C61         C  0.66081528  0.23863100  0.50952550    -0.53500
C62         C  0.63181610  0.23605158  0.51073996     0.10600
H63         H  0.67693577  0.17736482  0.53973187     0.15200
H64         H  0.59636903  0.20381760  0.50484539     0.00900
H65         H  0.67445836  0.19392439  0.45563093     0.15500
H66         H  0.67215151  0.25868858  0.51381722     0.15300
O67         O  0.55303024  0.07275336  0.29649061    -0.85900
O68         O  0.44456985  0.94963897  0.30098446    -0.86100
O69         O  0.46676785  0.04556891  0.33330732    -0.87800
O70         O  0.53166177  0.97649388  0.33280245    -0.86500
O71         O  0.55576925  0.95216581  0.29789749    -0.86100
O72         O  0.44103914  0.06826074  0.29816582    -0.87500
O73         O  0.46608640  0.97733715  0.33576162    -0.86000
O74         O  0.53000040  0.04714586  0.33170415    -0.85600
Zr75       Zr  0.49852890  0.01051268  0.31045263     2.84300
O76         O  0.49847947  0.96896730  0.28189476    -1.07500
O77         O  0.49742967  0.05056752  0.28025156    -1.08300
C78         C  0.54682844  0.06765857  0.32293251     1.07200
C79         C  0.44954147  0.95643394  0.32738837     1.07100
C80         C  0.44805746  0.06387469  0.32450015     1.10100
C81         C  0.54983666  0.95762370  0.32426835     1.07900
H82         H  0.44101265  0.00855259  0.29494988     0.33400
O83         O  0.45720641  0.00885022  0.28221840    -1.28500
H84         H  0.55587877  0.01137803  0.29281251     0.33100
O85         O  0.53898433  0.01082935  0.28091817    -1.30200
O86         O  0.43731722  0.95188796  0.20748157    -0.85900
O87         O  0.55762952  0.06673123  0.20488326    -0.87400
O88         O  0.40634458  0.02991329  0.25788996    -0.86000
O89         O  0.52334069  0.91940531  0.24958043    -0.86100
O90         O  0.58815955  0.98611910  0.25171814    -0.85800
O91         O  0.47069923  0.09940617  0.24839932    -0.85600
O92         O  0.46216906  0.04161198  0.17120345    -0.85900
O93         O  0.52936167  0.97707941  0.17082720    -0.85400
O94         O  0.43627529  0.06365779  0.20617840    -0.86500
O95         O  0.55457724  0.95270947  0.20512623    -0.85600
O96         O  0.40745364  0.98074382  0.26040379    -0.86000
O97         O  0.51977071  0.09986634  0.24730046    -0.85700
O98         O  0.58771923  0.03527743  0.25368846    -0.85400
O99         O  0.47429366  0.91877044  0.24982145    -0.85800
O100        O  0.46261109  0.97606259  0.17288779    -0.86100
O101        O  0.53163500  0.04220319  0.17099992    -0.87400
Zr102      Zr  0.45713392  0.96768342  0.25357574     2.83100
Zr103      Zr  0.53815436  0.05139448  0.25114393     2.83500
Zr104      Zr  0.45561769  0.04911187  0.25234152     2.84100
Zr105      Zr  0.53857822  0.96958490  0.25189980     2.83400
Zr106      Zr  0.49660734  0.00973705  0.19443599     2.84200
O107        O  0.53812512  0.01034767  0.22252981    -1.08000
O108        O  0.45575204  0.00813378  0.22366083    -1.07500
C109        C  0.44317445  0.95780461  0.18106003     1.07100
C110        C  0.55171228  0.06026597  0.17859691     1.09800
C111        C  0.39434672  0.00484392  0.26145029     1.07300
C112        C  0.49877964  0.90650412  0.24776021     1.07700
C113        C  0.60065391  0.01093764  0.25348008     1.07300
C114        C  0.49527492  0.11227614  0.24599369     1.06800
C115        C  0.44225793  0.05859331  0.17973003     1.07200
C116        C  0.54833993  0.95882309  0.17886360     1.06800
H117        H  0.49612835  0.06692040  0.21043196     0.33400
O118        O  0.49645068  0.05048397  0.22298523    -1.29100
H119        H  0.49695219  0.95221931  0.21146572     0.33500
O120        O  0.49719251  0.96893043  0.22363813    -1.30500
C121        C  0.30060775  0.82392341  0.00259511     0.87000
C122        C  0.31459107  0.83681245  0.97577567    -0.53200
C123        C  0.31661840  0.86596846  0.97584708     0.10000
C124        C  0.30416040  0.88000659  0.00286052     0.20900
C125        C  0.31873469  0.83668127  0.02745119    -0.53900
C126        C  0.32085338  0.86613654  0.02744049     0.10100
C127        C  0.27195481  0.83855214  0.00580267    -0.53500
C128        C  0.27360627  0.86755613  0.00647864     0.10600
H129        H  0.32365625  0.82390967  0.95887522     0.15200
H130        H  0.30549473  0.90367677  0.00205680     0.00900
H131        H  0.32956216  0.82426697  0.04357164     0.15500
H132        H  0.25181112  0.82681355  0.00810286     0.15300
C133        C  0.68813166  0.82555941  0.00058545     0.87000
C134        C  0.66792900  0.83698029  0.02407253    -0.53200
C135        C  0.66434322  0.86589846  0.02341516     0.10000
C136        C  0.68139361  0.88102004  0.99959634     0.20900
C137        C  0.67465475  0.83672982  0.97277464    -0.53900
C138        C  0.67098753  0.86581202  0.97179324     0.10100
C139        C  0.71591529  0.84304461  0.00462303    -0.53500
C140        C  0.71254598  0.87199497  0.00454467     0.10600
H141        H  0.65722403  0.82428332  0.04021817     0.15200
H142        H  0.67915574  0.90464864  0.99970329     0.00900
H143        H  0.66633183  0.82209344  0.95678069     0.15500
H144        H  0.73657857  0.83317505  0.00724892     0.15300
C145        C  0.67912378  0.80936855  0.50291730     0.87000
C146        C  0.67023447  0.82659317  0.47620671    -0.53200
C147        C  0.64217240  0.83419440  0.47593885     0.10000
C148        C  0.62518527  0.82353610  0.50207338     0.20900
C149        C  0.67009433  0.82805244  0.52844566    -0.53900
C150        C  0.64176503  0.83531706  0.52824259     0.10100
C151        C  0.65757534  0.78373023  0.50319621    -0.53500
C152        C  0.62965606  0.79121623  0.50326537     0.10600
H153        H  0.68475875  0.83226530  0.45897478     0.15200
H154        H  0.60222060  0.82908542  0.50135270     0.00900
H155        H  0.68507432  0.83522939  0.54474957     0.15500
H156        H  0.66290521  0.76131320  0.50194487     0.15300
C157        C  0.30987425  0.20116121  0.00038567     0.87000
C158        C  0.32422364  0.18956216  0.02790817    -0.53200
C159        C  0.32811962  0.16061485  0.02787337     0.10000
C160        C  0.31643853  0.14548372  0.00093206     0.20900
C161        C  0.32872483  0.19001538  0.97621977    -0.53900
C162        C  0.33234895  0.16087358  0.97650308     0.10100
C163        C  0.28210250  0.18366306  0.99805394    -0.53500
C164        C  0.28503395  0.15458501  0.99808779     0.10600
H165        H  0.33097589  0.20224267  0.04607192     0.15200
H166        H  0.31895651  0.12201183  0.00132283     0.00900
H167        H  0.33873017  0.20410580  0.96053074     0.15500
H168        H  0.26150407  0.19386589  0.99637154     0.15300
C169        C  0.69219492  0.19436855  0.99648532     0.87000
C170        C  0.67412809  0.18258145  0.97145760    -0.53200
C171        C  0.67117243  0.15336591  0.97115389     0.10000
C172        C  0.68702652  0.13811485  0.99557350     0.20900
C173        C  0.67808897  0.18093553  0.02345519    -0.53900
C174        C  0.67503960  0.15172179  0.02294448     0.10100
C175        C  0.72063281  0.17867922  0.99446136    -0.53500
C176        C  0.71820218  0.14941091  0.99345758     0.10600
H177        H  0.66420353  0.19620044  0.95552257     0.15200
H178        H  0.68472869  0.11439033  0.99496090     0.00900
H179        H  0.67031039  0.19274411  0.04161327     0.15500
H180        H  0.74118565  0.18981883  0.99397987     0.15300
C181        C  0.30492369  0.20107665  0.49690393     0.87000
C182        C  0.31589910  0.18194275  0.47230311    -0.53200
C183        C  0.34468373  0.17746157  0.47311124     0.10000
C184        C  0.36013961  0.19235440  0.49798169     0.20900
C185        C  0.31555893  0.18560106  0.52397743    -0.53900
C186        C  0.34445881  0.18129563  0.52473073     0.10100
C187        C  0.32338877  0.22843773  0.49486755    -0.53500
C188        C  0.35215166  0.22396739  0.49527813     0.10600
H189        H  0.30275024  0.17197756  0.45589699     0.15200
H190        H  0.38346786  0.18873069  0.49809716     0.00900
H191        H  0.30132879  0.17783577  0.54065796     0.15500
H192        H  0.31440141  0.24970699  0.49321836     0.15300
C193        C  0.31418142  0.80083947  0.49859904     0.87000
C194        C  0.32646733  0.81813883  0.52399701    -0.53200
C195        C  0.35547510  0.82313808  0.52303399     0.10000
C196        C  0.36960822  0.81013646  0.49633870     0.20900
C197        C  0.32418288  0.81759880  0.47186379    -0.53900
C198        C  0.35305683  0.82267075  0.47059126     0.10100
C199        C  0.33242087  0.77347823  0.49796176    -0.53500
C200        C  0.36109187  0.77822880  0.49691028     0.10600
H201        H  0.31322172  0.82603486  0.54119498     0.15200
H202        H  0.39302696  0.81386075  0.49506290     0.00900
H203        H  0.30943833  0.82570598  0.45600013     0.15500
H204        H  0.32442876  0.75181244  0.49529340     0.15300
O205        O  0.90330810  0.76378883  0.47607270    -0.85900
O206        O  0.02302628  0.75560147  0.58546811    -0.86100
O207        O  0.93475176  0.71452311  0.55129937    -0.87800
O208        O  0.94305897  0.80752669  0.55856937    -0.86500
O209        O  0.96453852  0.84289563  0.53166283    -0.86100
O210        O  0.95987675  0.67962301  0.52811393    -0.87500
O211        O  0.97393468  0.75457270  0.58625723    -0.86000
O212        O  0.90518217  0.76428818  0.52509258    -0.85600
Zr213      Zr  0.95532714  0.76095232  0.53806392     2.84300
O214        O  0.99664382  0.78982293  0.53782213    -1.07500
O215        O  0.95317844  0.73215993  0.49705421    -1.08300
C216        C  0.89146643  0.76516304  0.50112327     1.07200
C217        C  0.99872277  0.75259479  0.59830436     1.07100
C218        C  0.94032756  0.68815870  0.54550089     1.10100
C219        C  0.94840867  0.83419310  0.55248836     1.07900
H220        H  0.99576216  0.71890754  0.55223522     0.33400
O221        O  0.99547893  0.73165829  0.53594214    -1.28500
H222        H  0.93763460  0.80261643  0.49822504     0.33100
O223        O  0.95398762  0.79029432  0.49750042    -1.30200
O224        O  0.08545655  0.76387357  0.51594654    -0.85900
O225        O  0.96802135  0.75777378  0.40625721    -0.87400
O226        O  0.02755399  0.67984070  0.52674014    -0.86000
O227        O  0.02861323  0.84151853  0.53050624    -0.86100
O228        O  0.96423104  0.84278998  0.46359449    -0.85800
O229        O  0.95700461  0.68013346  0.46404442    -0.85600
O230        O  0.05021004  0.71536319  0.43832664    -0.85900
O231        O  0.04671202  0.80957045  0.43542783    -0.85400
O232        O  0.02511876  0.67949257  0.46117301    -0.86500
O233        O  0.02672781  0.84413634  0.46354992    -0.85600
O234        O  0.05446952  0.71437056  0.54988264    -0.86000
O235        O  0.93113167  0.71509251  0.44199074    -0.85700
O236        O  0.93822129  0.80817364  0.43935643    -0.85400
O237        O  0.05377398  0.80689858  0.55423492    -0.85800
O238        O  0.08446601  0.76537544  0.46700866    -0.86100
O239        O  0.01697486  0.75885230  0.40485652    -0.87400
Zr240      Zr  0.03693361  0.76080939  0.53532712     2.83100
Zr241      Zr  0.95207001  0.76124171  0.45642655     2.83500
Zr242      Zr  0.99330144  0.70301547  0.49500054     2.84100
Zr243      Zr  0.99543542  0.81896384  0.49709245     2.83400
Zr244      Zr  0.03382668  0.76201302  0.45400916     2.84200
O245        O  0.99327584  0.79046911  0.45580991    -1.08000
O246        O  0.03489516  0.73208887  0.49425696    -1.07500
C247        C  0.09784272  0.76592797  0.49125537     1.07100
C248        C  0.99221076  0.75676284  0.39274166     1.09800
C249        C  0.04763480  0.68808165  0.54415273     1.07300
C250        C  0.04704922  0.83320066  0.54923359     1.07700
C251        C  0.94557412  0.83438561  0.44493972     1.07300
C252        C  0.93651839  0.68853496  0.44742162     1.06800
C253        C  0.04432747  0.68864464  0.44336164     1.07200
C254        C  0.04216522  0.83597009  0.44233002     1.06800
H255        H  0.99182271  0.72031890  0.43802346     0.33400
O256        O  0.99258492  0.73250935  0.45469697    -1.29100
H257        H  0.05279115  0.80305367  0.49465433     0.33500
O258        O  0.03605141  0.79066138  0.49508603    -1.30500
O259        O  0.90231167  0.25321998  0.47619112    -0.85900
O260        O  0.01556947  0.26706296  0.58941155    -0.86100
O261        O  0.93912469  0.21040469  0.55843990    -0.87800
O262        O  0.93371965  0.30544659  0.55641068    -0.86500
O263        O  0.95969558  0.34158233  0.53484746    -0.86100
O264        O  0.96381561  0.17633557  0.53367190    -0.87500
O265        O  0.96647123  0.26477988  0.58947409    -0.86000
O266        O  0.90187274  0.25378888  0.52519379    -0.85600
Zr267      Zr  0.95146517  0.25864905  0.54044337     2.84300
O268        O  0.99175107  0.28916696  0.54085315    -1.07500
O269        O  0.95174668  0.22951821  0.49960092    -1.08300
C270        C  0.88940435  0.25165936  0.50059768     1.07200
C271        C  0.99091290  0.26814750  0.60185416     1.07100
C272        C  0.94603779  0.18411532  0.55315043     1.10100
C273        C  0.94021159  0.33230846  0.55222243     1.07900
H274        H  0.99376110  0.21993646  0.55754446     0.33400
O275        O  0.99321169  0.23155669  0.54043400    -1.28500
H276        H  0.93306741  0.29910236  0.50025558     0.33100
O277        O  0.95032869  0.28807751  0.50002745    -1.30200
O278        O  0.08254064  0.25843383  0.52278842    -0.85900
O279        O  0.96792492  0.26627683  0.41031743    -0.87400
O280        O  0.02822365  0.18187076  0.53266581    -0.86000
O281        O  0.02543260  0.34285262  0.53170661    -0.86100
O282        O  0.95605254  0.33971947  0.46763190    -0.85800
O283        O  0.96150202  0.17839562  0.46421885    -0.85600
O284        O  0.04927653  0.21574697  0.44148887    -0.85900
O285        O  0.04888217  0.31074589  0.44465293    -0.85400
O286        O  0.02697498  0.17982601  0.46687547    -0.86500
O287        O  0.02341234  0.34446375  0.46916510    -0.85600
O288        O  0.05057822  0.21700336  0.55916504    -0.86000
O289        O  0.93847157  0.21292180  0.43816280    -0.85700
O290        O  0.93104344  0.30449923  0.44376679    -0.85400
O291        O  0.05313789  0.30923814  0.55387548    -0.85800
O292        O  0.08287091  0.26050380  0.47372220    -0.86100
O293        O  0.01699178  0.26614287  0.40919681    -0.87400
Zr294      Zr  0.03346092  0.26224460  0.54041326     2.83100
Zr295      Zr  0.95131842  0.25919121  0.45913326     2.83500
Zr296      Zr  0.99353295  0.20248412  0.49931474     2.84100
Zr297      Zr  0.99086399  0.31843955  0.50040881     2.83400
Zr298      Zr  0.03298038  0.26241249  0.45871426     2.84200
O299        O  0.99146535  0.28982405  0.45932502    -1.08000
O300        O  0.03354103  0.23331566  0.49949792    -1.07500
C301        C  0.09533172  0.25782262  0.49826051     1.07100
C302        C  0.99218758  0.26853731  0.39732762     1.09800
C303        C  0.04594456  0.19051438  0.55236004     1.07300
C304        C  0.04635829  0.33539215  0.54813109     1.07700
C305        C  0.93656603  0.33106756  0.44967670     1.07300
C306        C  0.94462439  0.18660051  0.44374626     1.06800
C307        C  0.04465072  0.18893119  0.44759702     1.07200
C308        C  0.04264444  0.33689485  0.45114096     1.06800
H309        H  0.99320589  0.22043006  0.44127254     0.33400
O310        O  0.99282158  0.23185041  0.45845603    -1.29100
H311        H  0.04952218  0.30339551  0.49948929     0.33500
O312        O  0.03262863  0.29117461  0.49965171    -1.30500
C313        C  0.79162844  0.51076581  0.67784090     0.87000
C314        C  0.80517416  0.48304288  0.66692220    -0.53200
C315        C  0.81268446  0.48347329  0.63859101     0.10000
C316        C  0.80536550  0.51182634  0.62340102     0.20900
C317        C  0.81313932  0.53468476  0.66973558    -0.53900
C318        C  0.82064080  0.53514274  0.64144196     0.10100
C319        C  0.76633765  0.51602349  0.65727090    -0.53500
C320        C  0.77344774  0.51671537  0.62910118     0.10600
H321        H  0.80980363  0.46505057  0.68086162     0.15200
H322        H  0.81082419  0.51250325  0.60035661     0.00900
H323        H  0.82148336  0.55021084  0.68504300     0.15500
H324        H  0.74455394  0.51999368  0.66351104     0.15300
C325        C  0.18982223  0.51652006  0.68337622     0.87000
C326        C  0.17386622  0.54327628  0.67290480    -0.53200
C327        C  0.16888362  0.54353814  0.64396546     0.10000
C328        C  0.18128908  0.51786310  0.62800191     0.20900
C329        C  0.17197600  0.49110365  0.67176655    -0.53900
C330        C  0.16698331  0.49184564  0.64276438     0.10100
C331        C  0.21725719  0.51734291  0.66530324    -0.53500
C332        C  0.21297001  0.51816791  0.63668024     0.10600
H333        H  0.16751873  0.56056198  0.68682362     0.15200
H334        H  0.17838682  0.51823837  0.60450663     0.00900
H335        H  0.16297942  0.47467979  0.68572406     0.15500
H336        H  0.23866779  0.51984866  0.67399789     0.15300
C337        C  0.81194526  0.00584115  0.29989026     0.87000
C338        C  0.82162252  0.98130207  0.31970886    -0.53200
C339        C  0.85035393  0.97989954  0.32300357     0.10000
C340        C  0.86734621  0.00294535  0.30669318     0.20900
C341        C  0.82569296  0.03252128  0.31377063    -0.53900
C342        C  0.85481704  0.03145185  0.31767426     0.10100
C343        C  0.82837903  0.00139484  0.27203698    -0.53500
C344        C  0.85715249  0.99927125  0.27540211     0.10600
H345        H  0.80797513  0.96667564  0.33156128     0.15200
H346        H  0.89074823  0.00104048  0.30903272     0.00900
H347        H  0.81282314  0.04987916  0.32174401     0.15500
H348        H  0.81792785  0.00042759  0.25133952     0.15300
C349        C  0.80359320  0.00683736  0.68980455     0.87000
C350        C  0.81782538  0.03350564  0.67567260    -0.53200
C351        C  0.84685617  0.03362259  0.67602549     0.10000
C352        C  0.85951371  0.00668988  0.69022049     0.20900
C353        C  0.81656781  0.98116319  0.67388031    -0.53900
C354        C  0.84592103  0.98070100  0.67421976     0.10100
C355        C  0.81686284  0.00598714  0.71963912    -0.53500
C356        C  0.84587039  0.00565757  0.72020356     0.10600
H357        H  0.80691536  0.05062834  0.66483837     0.15200
H358        H  0.88323299  0.00687476  0.69071101     0.00900
H359        H  0.80352138  0.96522298  0.66282080     0.15500
H360        H  0.80403344  0.00440959  0.73879506     0.15300
C361        C  0.79573263  0.50635867  0.31130861     0.87000
C362        C  0.81176212  0.53327744  0.32197894    -0.53200
C363        C  0.81623223  0.53384058  0.35084080     0.10000
C364        C  0.80383030  0.50755516  0.36697983     0.20900
C365        C  0.81326226  0.48121085  0.32298558    -0.53900
C366        C  0.81769780  0.48184160  0.35205261     0.10100
C367        C  0.76810794  0.50466005  0.32955729    -0.53500
C368        C  0.77204790  0.50526150  0.35848574     0.10600
H369        H  0.81946174  0.55019898  0.30783345     0.15200
H370        H  0.80766056  0.50844462  0.39039723     0.00900
H371        H  0.82143767  0.46432464  0.30951272     0.15500
H372        H  0.74698112  0.49994732  0.32123581     0.15300
C373        C  0.18685735  0.51062347  0.31095262     0.87000
C374        C  0.17075120  0.48370742  0.32278423    -0.53200
C375        C  0.16513472  0.48488466  0.35133717     0.10000
C376        C  0.17590128  0.51254255  0.36576319     0.20900
C377        C  0.16824196  0.53583408  0.31976701    -0.53900
C378        C  0.16230660  0.53698604  0.34829114     0.10100
C379        C  0.21353033  0.51285303  0.33000597    -0.53500
C380        C  0.20787068  0.51379379  0.35857707     0.10600
H381        H  0.16350768  0.46534959  0.31054692     0.15200
H382        H  0.17140024  0.51322087  0.38907160     0.00900
H383        H  0.16104434  0.55185524  0.30465094     0.15500
H384        H  0.23514271  0.51169355  0.32173369     0.15300
C385        C  0.18110034  0.01299138  0.30530137     0.87000
C386        C  0.17034502  0.03609152  0.32599462    -0.53200
C387        C  0.14109966  0.03868709  0.32671091     0.10000
C388        C  0.12537583  0.01690517  0.30718045     0.20900
C389        C  0.16535762  0.98551347  0.31581446    -0.53900
C390        C  0.13631207  0.98714779  0.31660550     0.10100
C391        C  0.16720625  0.02026555  0.27654446    -0.53500
C392        C  0.13831477  0.02289660  0.27744865     0.10600
H393        H  0.18462610  0.04940650  0.33878026     0.15200
H394        H  0.10180613  0.01802733  0.30772140     0.00900
H395        H  0.17600689  0.96757376  0.32559794     0.15500
H396        H  0.17936385  0.02298506  0.25695383     0.15300
C397        C  0.17718880  0.01093027  0.69457469     0.87000
C398        C  0.16352046  0.98512634  0.67842945    -0.53200
C399        C  0.13476978  0.98727265  0.67376111     0.10000
C400        C  0.12204337  0.01479240  0.68573568     0.20900
C401        C  0.16862987  0.03665711  0.67595765    -0.53900
C402        C  0.13981403  0.03897524  0.67176507     0.10100
C403        C  0.15945903  0.01357076  0.72192397    -0.53500
C404        C  0.13073335  0.01545578  0.71733330     0.10600
H405        H  0.17516490  0.96738177  0.66958775     0.15200
H406        H  0.09869199  0.01634778  0.68229161     0.00900
H407        H  0.18399544  0.05127656  0.66616474     0.15500
H408        H  0.16894160  0.01503480  0.74314043     0.15300
O409        O  0.73895602  0.60291692  0.97419983    -0.85900
O410        O  0.75168103  0.48265516  0.08317765    -0.86100
O411        O  0.70081136  0.56427819  0.05690473    -0.87800
O412        O  0.79357881  0.56931184  0.04980363    -0.86500
O413        O  0.82810631  0.54607601  0.02456245    -0.86100
O414        O  0.66483245  0.54360773  0.02999579    -0.87500
O415        O  0.75352677  0.53180720  0.08464082    -0.86000
O416        O  0.74140608  0.60149196  0.02325298    -0.85600
Zr417      Zr  0.74649811  0.55114196  0.03633470     2.84300
O418        O  0.77541506  0.51100594  0.03378442    -1.07500
O419        O  0.71634616  0.55250761  0.99622830    -1.08300
C420        C  0.73802914  0.61473358  0.99919833     1.07200
C421        C  0.75483188  0.50672492  0.09650190     1.07100
C422        C  0.67418674  0.55969150  0.05070100     1.10100
C423        C  0.81984967  0.56466641  0.04307435     1.07900
H424        H  0.70660908  0.50920326  0.05337741     0.33400
O425        O  0.71748680  0.50996391  0.03587151    -1.28500
H426        H  0.78573288  0.57116974  0.99519577     0.33100
O427        O  0.77423010  0.55378415  0.99479632    -1.30200
O428        O  0.73965160  0.42120926  0.01463924    -0.85900
O429        O  0.74811897  0.54101991  0.90469223    -0.87400
O430        O  0.66545208  0.47812120  0.03008491    -0.86000
O431        O  0.82694764  0.48101165  0.02618897    -0.86100
O432        O  0.82643727  0.54898998  0.96120127    -0.85800
O433        O  0.66248267  0.54167750  0.96193996    -0.85600
O434        O  0.69546955  0.45888833  0.93372671    -0.85900
O435        O  0.78981832  0.45588979  0.93573420    -0.85400
O436        O  0.66147527  0.47839907  0.96277499    -0.86500
O437        O  0.82565125  0.48125125  0.95849954    -0.85600
O438        O  0.70126683  0.45324437  0.05238604    -0.86000
O439        O  0.69659673  0.56731623  0.93694888    -0.85700
O440        O  0.79123843  0.57534351  0.94013249    -0.85400
O441        O  0.79295670  0.45322562  0.04863430    -0.85800
O442        O  0.73557087  0.42247329  0.96575883    -0.86100
O443        O  0.74637936  0.49185853  0.90355503    -0.87400
Zr444      Zr  0.74648494  0.46973059  0.03297634     2.83100
Zr445      Zr  0.74433130  0.55482931  0.95471165     2.83500
Zr446      Zr  0.68716866  0.51110954  0.99568948     2.84100
Zr447      Zr  0.80311065  0.51314683  0.99236813     2.83400
Zr448      Zr  0.74331533  0.47260050  0.95188367     2.84200
O449        O  0.77262436  0.51399019  0.95257326    -1.08000
O450        O  0.71585381  0.47068549  0.99342565    -1.07500
C451        C  0.73472747  0.40929285  0.99011898     1.07100
C452        C  0.74871857  0.51674736  0.89147060     1.09800
C453        C  0.67490492  0.45964306  0.04826026     1.07300
C454        C  0.81909253  0.46121080  0.04414084     1.07700
C455        C  0.81795267  0.56978436  0.94501705     1.07300
C456        C  0.67039137  0.55956627  0.94230829     1.06800
C457        C  0.66915809  0.46287401  0.94124809     1.07200
C458        C  0.81649330  0.46204033  0.94068378     1.06800
H459        H  0.70332448  0.51345168  0.93722905     0.33400
O460        O  0.71525632  0.51332927  0.95411715    -1.29100
H461        H  0.78582738  0.45413791  0.99093735     0.33500
O462        O  0.77429288  0.47109837  0.99154766    -1.30500
O463        O  0.24788934  0.60094132  0.97285009    -0.85900
O464        O  0.24282425  0.48574519  0.08964182    -0.86100
O465        O  0.20062645  0.57211149  0.05556579    -0.87800
O466        O  0.29208069  0.56513248  0.05768623    -0.86500
O467        O  0.32576225  0.54041369  0.03262392    -0.86100
O468        O  0.16393867  0.54570245  0.03533961    -0.87500
O469        O  0.24336926  0.53499057  0.08855488    -0.86000
O470        O  0.24844668  0.60130611  0.02206035    -0.85600
Zr471      Zr  0.24517396  0.55190638  0.03925016     2.84300
O472        O  0.27282430  0.51078974  0.03846753    -1.07500
O473        O  0.21458201  0.55203540  0.99980506    -1.08300
C474        C  0.25003099  0.61357844  0.99728582     1.07200
C475        C  0.24201258  0.51060075  0.10173718     1.07100
C476        C  0.17392514  0.56594832  0.05163588     1.10100
C477        C  0.31804941  0.55788928  0.05254845     1.07900
H478        H  0.20350140  0.51146254  0.05839447     0.33400
O479        O  0.21501920  0.51130558  0.04132076    -1.28500
H480        H  0.28551430  0.56867063  0.99712927     0.33100
O481        O  0.27279259  0.55216705  0.99752845    -1.30200
O482        O  0.24468350  0.42021596  0.02485390    -0.85900
O483        O  0.23490821  0.53444784  0.90893044    -0.87400
O484        O  0.16028568  0.47844292  0.03494438    -0.86000
O485        O  0.32534552  0.47765297  0.02756693    -0.86100
O486        O  0.32349758  0.54401487  0.96281712    -0.85800
O487        O  0.16103182  0.54634787  0.97115778    -0.85600
O488        O  0.19218086  0.45101525  0.94591031    -0.85900
O489        O  0.28505932  0.45762831  0.93703355    -0.85400
O490        O  0.15960043  0.47790331  0.97016077    -0.86500
O491        O  0.32182909  0.48112950  0.96027215    -0.85600
O492        O  0.19564158  0.45175991  0.05553825    -0.86000
O493        O  0.19547928  0.57230208  0.94697343    -0.85700
O494        O  0.28786315  0.56522095  0.93694512    -0.85400
O495        O  0.29068091  0.45586960  0.05499952    -0.85800
O496        O  0.24292354  0.42081946  0.97580182    -0.86100
O497        O  0.23196913  0.48521580  0.90923260    -0.87400
Zr498      Zr  0.24286418  0.47005458  0.03996077     2.83100
Zr499      Zr  0.24174183  0.55151468  0.95789196     2.83500
Zr500      Zr  0.18447653  0.51151406  0.00187241     2.84100
Zr501      Zr  0.30039729  0.51103492  0.99672872     2.83400
Zr502      Zr  0.23935094  0.47004957  0.95864936     2.84200
O503        O  0.26954929  0.51053457  0.95701543    -1.08000
O504        O  0.21211667  0.47011099  0.00051368    -1.07500
C505        C  0.24542606  0.40787576  0.00017288     1.07100
C506        C  0.23127545  0.50984274  0.89657746     1.09800
C507        C  0.16901794  0.45806564  0.05144556     1.07300
C508        C  0.31703708  0.46054913  0.04772482     1.07700
C509        C  0.31449262  0.56049705  0.94253235     1.07300
C510        C  0.16931522  0.56662094  0.95403626     1.06800
C511        C  0.16639204  0.45793743  0.95238553     1.07200
C512        C  0.31184162  0.46412761  0.94074040     1.06800
H513        H  0.19811484  0.51131739  0.94380264     0.33400
O514        O  0.21127708  0.51116457  0.95974619    -1.29100
H515        H  0.28238757  0.45345985  0.99737556     0.33500
O516        O  0.27046190  0.47012816  0.99803329    -1.30500
C517        C  0.00060185  0.70546943  0.80865894     0.87000
C518        C  0.02571053  0.68848918  0.82158811    -0.53200
C519        C  0.02689956  0.68868902  0.85078324     0.10000
C520        C  0.00227357  0.70518290  0.86466314     0.20900
C521        C  0.97430760  0.69135223  0.82256960    -0.53900
C522        C  0.97498949  0.69089915  0.85172593     0.10100
C523        C  0.00352011  0.73524398  0.82216324    -0.53500
C524        C  0.00469461  0.73538896  0.85132969     0.10600
H525        H  0.03958639  0.67482420  0.80956700     0.15200
H526        H  0.00257279  0.70534294  0.88840236     0.00900
H527        H  0.95704017  0.68140104  0.81034266     0.15500
H528        H  0.00548257  0.75472262  0.80947934     0.15300
C529        C  0.99112648  0.31688109  0.81239255     0.87000
C530        C  0.96284228  0.32952761  0.82199192    -0.53200
C531        C  0.96065426  0.33370731  0.85072869     0.10000
C532        C  0.98733324  0.32460912  0.86767329     0.20900
C533        C  0.01403917  0.33782913  0.82505700    -0.53900
C534        C  0.01196014  0.34187145  0.85408834     0.10100
C535        C  0.99473262  0.28958665  0.82999254    -0.53500
C536        C  0.99358394  0.29354431  0.85878656     0.10600
H537        H  0.94673629  0.33682709  0.80697912     0.15200
H538        H  0.98502930  0.32795885  0.89096143     0.00900
H539        H  0.03077749  0.34845826  0.81298970     0.15500
H540        H  0.99873751  0.26890728  0.82034804     0.15300
C541        C  0.49725834  0.69490036  0.80253802     0.87000
C542        C  0.46960178  0.68408995  0.81681865    -0.53200
C543        C  0.46711413  0.65489929  0.81936834     0.10000
C544        C  0.49322055  0.63897067  0.80781897     0.20900
C545        C  0.52107012  0.68172026  0.82100536    -0.53900
C546        C  0.51890124  0.65264562  0.82345278     0.10100
C547        C  0.49888012  0.67851627  0.77434823    -0.53500
C548        C  0.49648723  0.64933085  0.77682986     0.10600
H549        H  0.45358568  0.69848937  0.82492005     0.15200
H550        H  0.49177175  0.61544726  0.81055426     0.00900
H551        H  0.53815094  0.69342165  0.83170733     0.15500
H552        H  0.50142960  0.68934482  0.75388586     0.15300
C553        C  0.49827136  0.69831192  0.18836726     0.87000
C554        C  0.52410663  0.68536368  0.17243527    -0.53200
C555        C  0.52371433  0.65598535  0.17083881     0.10000
C556        C  0.49736303  0.64223486  0.18540705     0.20900
C557        C  0.47237462  0.68588031  0.17235125    -0.53900
C558        C  0.47194019  0.65668898  0.17011519     0.10100
C559        C  0.49830353  0.68332052  0.21743322    -0.53500
C560        C  0.49760559  0.65420396  0.21636841     0.10600
H561        H  0.54096924  0.69765413  0.16220864     0.15200
H562        H  0.49694058  0.61848581  0.18466865     0.00900
H563        H  0.45586213  0.69923545  0.16340021     0.15500
H564        H  0.50043319  0.69502780  0.23742410     0.15300
C565        C  0.98589396  0.32163501  0.18821031     0.87000
C566        C  0.01203949  0.33660034  0.17401275    -0.53200
C567        C  0.01279158  0.33508388  0.14476681     0.10000
C568        C  0.98669372  0.31848074  0.13214600     0.20900
C569        C  0.96049826  0.33580769  0.17366740    -0.53900
C570        C  0.96073129  0.33486462  0.14431194     0.10100
C571        C  0.98558171  0.29130713  0.17672907    -0.53500
C572        C  0.98653696  0.28880893  0.14781261     0.10600
H573        H  0.02782960  0.34938896  0.18543170     0.15200
H574        H  0.98706769  0.31691314  0.10850088     0.00900
H575        H  0.94481705  0.34773083  0.18561624     0.15500
H576        H  0.98307459  0.27308511  0.19090580     0.15300
C577        C  0.99566730  0.70907815  0.17993604     0.87000
C578        C  0.96922713  0.69232592  0.16931939    -0.53200
C579        C  0.96937929  0.68641834  0.14071874     0.10000
C580        C  0.99623268  0.69704715  0.12506816     0.20900
C581        C  0.02117309  0.69109210  0.17060694    -0.53900
C582        C  0.02124326  0.68435310  0.14206679     0.10100
C583        C  0.99783782  0.73547642  0.15985722    -0.53500
C584        C  0.99766103  0.72916426  0.13135545     0.10600
H585        H  0.95170339  0.68587946  0.18323137     0.15200
H586        H  0.99632069  0.69204341  0.10190548     0.00900
H587        H  0.03803410  0.68461029  0.18506465     0.15500
H588        H  0.99961977  0.75756966  0.16675476     0.15300
C589        C  0.48636896  0.32529128  0.80288905     0.87000
C590        C  0.51304699  0.34018468  0.81666984    -0.53200
C591        C  0.51167676  0.36959663  0.81894619     0.10000
C592        C  0.48341905  0.38131218  0.80662529     0.20900
C593        C  0.46159776  0.33573398  0.82142210    -0.53900
C594        C  0.46011492  0.36493851  0.82362804     0.10100
C595        C  0.48292368  0.34056614  0.77419645    -0.53500
C596        C  0.48060536  0.36941662  0.77587432     0.10600
H597        H  0.53101964  0.32885528  0.82539932     0.15200
H598        H  0.48189024  0.40496303  0.80741622     0.00900
H599        H  0.44630922  0.32122745  0.83149476     0.15500
H600        H  0.48198742  0.32932874  0.75385447     0.15300
C601        C  0.49592018  0.32116760  0.18300307     0.87000
C602        C  0.46912835  0.33260014  0.16740665    -0.53200
C603        C  0.46877367  0.36178351  0.16392912     0.10000
C604        C  0.49527405  0.37709082  0.17656664     0.20900
C605        C  0.52075301  0.33327620  0.16534947    -0.53900
C606        C  0.52069444  0.36242117  0.16211098     0.10100
C607        C  0.49688203  0.33802196  0.21096641    -0.53500
C608        C  0.49602987  0.36715165  0.20800186     0.10600
H609        H  0.45176880  0.31946925  0.15918962     0.15200
H610        H  0.49554675  0.40057459  0.17378452     0.00900
H611        H  0.53710808  0.31992876  0.15612292     0.15500
H612        H  0.49685075  0.32748158  0.23171875     0.15300
O613        O  0.54206675  0.44748904  0.54155472    -0.85900
O614        O  0.46515206  0.48830088  0.40342061    -0.86100
O615        O  0.48150359  0.41706398  0.47089665    -0.87800
O616        O  0.55924038  0.46573505  0.44673165    -0.86500
O617        O  0.57382030  0.51288908  0.45114147    -0.86100
O618        O  0.44177129  0.42725397  0.49761141    -0.87500
O619        O  0.49741739  0.45442678  0.41710133    -0.86000
O620        O  0.53760047  0.42908864  0.49614131    -0.85600
Zr621      Zr  0.51052577  0.46118429  0.46703317     2.84300
O622        O  0.50919687  0.50666724  0.44642384    -1.07500
O623        O  0.49201053  0.46236082  0.51362730    -1.08300
C624        C  0.54609890  0.42788734  0.52227224     1.07200
C625        C  0.48068927  0.46614723  0.39856946     1.07100
C626        C  0.45744449  0.41029929  0.48292056     1.10100
C627        C  0.57785440  0.48655264  0.44416230     1.07900
H628        H  0.45163909  0.46233418  0.45366617     0.33400
O629        O  0.46288383  0.47556345  0.46515625    -1.28500
H630        H  0.55669442  0.48645375  0.49682540     0.33100
O631        O  0.53736683  0.49316111  0.49520484    -1.30200
O632        O  0.43742206  0.56773068  0.44268837    -0.85900
O633        O  0.51199103  0.52891482  0.58096234    -0.87400
O634        O  0.40073874  0.47776503  0.48284477    -0.86000
O635        O  0.53340687  0.55789724  0.42547289    -0.86100
O636        O  0.57924325  0.54023247  0.50455141    -0.85800
O637        O  0.44949342  0.45634140  0.56081172    -0.85600
O638        O  0.42270585  0.54873352  0.54253275    -0.85900
O639        O  0.49612877  0.60050461  0.51314481    -0.85400
O640        O  0.41039808  0.50086559  0.54148878    -0.86500
O641        O  0.53587661  0.58944035  0.48720367    -0.85600
O642        O  0.41228651  0.50387526  0.44276587    -0.86000
O643        O  0.49372656  0.46957937  0.57830818    -0.85700
O644        O  0.56783062  0.51301464  0.54378836    -0.85400
O645        O  0.48917704  0.54557533  0.40722960    -0.85800
O646        O  0.43901670  0.58588919  0.48837569    -0.86100
O647        O  0.48090498  0.56380401  0.56669047    -0.87400
Zr648      Zr  0.46152452  0.52115446  0.44415465     2.83100
Zr649      Zr  0.51877685  0.49514290  0.54117861     2.83500
Zr650      Zr  0.44455889  0.47704213  0.51193641     2.84100
Zr651      Zr  0.53609249  0.53886492  0.47451931     2.83400
Zr652      Zr  0.46882042  0.55532031  0.51746657     2.84200
O653        O  0.51685565  0.54110264  0.52071923    -1.08000
O654        O  0.44205091  0.52253873  0.49029199    -1.07500
C655        C  0.43215258  0.58713372  0.46167444     1.07100
C656        C  0.49649067  0.55126455  0.58543996     1.09800
C657        C  0.39459131  0.48913192  0.45834258     1.07300
C658        C  0.51446905  0.55684709  0.40517859     1.07700
C659        C  0.58557914  0.52816885  0.52864800     1.07300
C660        C  0.46882836  0.45778327  0.58085609     1.06800
C661        C  0.40630894  0.52695595  0.54904057     1.07200
C662        C  0.51972032  0.60737668  0.50030453     1.06800
H663        H  0.46349108  0.51106175  0.55754105     0.33400
O664        O  0.47139466  0.51002545  0.53854275    -1.29100
H665        H  0.48837835  0.57233999  0.46255514     0.33500
O666        O  0.48861593  0.55368854  0.47151787    -1.30500
O667        O  0.06346533  0.95877129  0.03536985    -0.85900
O668        O  0.01065778  0.04573493  0.90994234    -0.86100
O669        O  0.04166991  0.95084010  0.94169460    -0.87800
O670        O  0.08718154  0.02934231  0.97350481    -0.86500
O671        O  0.07605451  0.06465023  0.00549947    -0.86100
O672        O  0.99568722  0.93372662  0.94746197    -0.87500
O673        O  0.04946525  0.01750290  0.91865288    -0.86000
O674        O  0.07962227  0.96987859  0.99023556    -0.85600
Zr675      Zr  0.04451225  0.99804760  0.96637891     2.84300
O676        O  0.02671859  0.04455014  0.96977595    -1.07500
O677        O  0.01555967  0.96671917  0.99316914    -1.08300
C678        C  0.08242650  0.95863331  0.01516204     1.07200
C679        C  0.03463064  0.03426886  0.90272645     1.07100
C680        C  0.02161538  0.93140266  0.93883928     1.10100
C681        C  0.09366821  0.05132032  0.98944575     1.07900
H682        H  0.99831146  0.99166388  0.92876731     0.33400
O683        O  0.99776556  0.99796266  0.94864130    -1.28500
H684        H  0.06296821  0.01272560  0.02188603     0.33100
O685        O  0.04446361  0.01256046  0.01434567    -1.30200
O686        O  0.93204758  0.06612607  0.95624237    -0.85900
O687        O  0.98512121  0.97962598  0.08343706    -0.87400
O688        O  0.94590256  0.97105604  0.92809369    -0.86000
O689        O  0.02467237  0.10428205  0.99151363    -0.86100
O690        O  0.05027442  0.05181589  0.06463812    -0.85800
O691        O  0.97270634  0.92123220  0.00199501    -0.85600
O692        O  0.90808983  0.99806572  0.01970249    -0.85900
O693        O  0.95381747  0.07281758  0.05553871    -0.85400
O694        O  0.91834630  0.96199465  0.98829046    -0.86500
O695        O  0.99977394  0.08877760  0.04895701    -0.85600
O696        O  0.95216052  0.01846557  0.91697383    -0.86000
O697        O  0.00329390  0.93057859  0.03940168    -0.85700
O698        O  0.04587784  0.00422109  0.07685435    -0.85400
O699        O  0.99544281  0.09408520  0.95327926    -0.85800
O700        O  0.91638113  0.05619476  0.00181685    -0.86100
O701        O  0.94652881  0.00788497  0.07397686    -0.87400
Zr702      Zr  0.97975826  0.04440931  0.95241402     2.83100
Zr703      Zr  0.01608596  0.98089973  0.04102799     2.83500
Zr704      Zr  0.96859851  0.96666265  0.97555792     2.84100
Zr705      Zr  0.02645217  0.05867839  0.01790863     2.83400
Zr706      Zr  0.95122313  0.02799250  0.02682919     2.84200
O707        O  0.99796523  0.02727877  0.04491427    -1.08000
O708        O  0.95104766  0.01312508  0.97910527    -1.07500
C709        C  0.91317247  0.06659490  0.97650416     1.07100
C710        C  0.96102887  0.99113783  0.09014235     1.09800
C711        C  0.94318921  0.99282704  0.91113100     1.07300
C712        C  0.01142449  0.11127394  0.96823654     1.07700
C713        C  0.05468895  0.03014902  0.08145483     1.07300
C714        C  0.98777921  0.91352082  0.02390133     1.06800
C715        C  0.90100696  0.97593936  0.00432666     1.07200
C716        C  0.97477197  0.09090762  0.05996320     1.06800
H717        H  0.95686685  0.96786426  0.03464901     0.33400
O718        O  0.96881468  0.98108377  0.02367426    -1.29100
H719        H  0.97188392  0.07882577  0.00112771     0.33500
O720        O  0.97967045  0.05953849  0.00001225    -1.30500
C721        C  0.50298777  0.42529721  0.26515305    -0.13800
C722        C  0.48517785  0.41358762  0.28644229     0.16600
C723        C  0.46889481  0.38868407  0.28043569     0.02900
C724        C  0.47163629  0.37523122  0.25403642    -0.12300
C725        C  0.49091639  0.38560855  0.23332151    -0.03400
C726        C  0.50583679  0.41167542  0.23854855     0.02100
C727        C  0.48401308  0.42739597  0.31485988     0.09000
N728        N  0.45069673  0.37574187  0.30144981     0.65300
H729        H  0.45915418  0.35582617  0.25010722     0.18200
N730        N  0.52484370  0.42398519  0.21788043     0.75800
H731        H  0.51511880  0.44484258  0.26943022     0.09700
C732        C  0.50740157  0.42644897  0.33380020     0.03400
C733        C  0.50564935  0.43943364  0.36059723    -0.05300
C734        C  0.48073839  0.45330580  0.36944037    -0.23700
C735        C  0.45717830  0.45413240  0.35036731     0.12700
C736        C  0.45910866  0.44129973  0.32329719    -0.12800
N737        N  0.53261971  0.41116376  0.32676749     0.64400
H738        H  0.52403265  0.43839336  0.37469625     0.12200
N739        N  0.43062419  0.46625733  0.35856341     0.61000
H740        H  0.44090387  0.44183458  0.30890762     0.08400
O741        O  0.55138276  0.42067188  0.22090235    -0.40500
O742        O  0.51616826  0.44420487  0.20230425    -0.39600
O743        O  0.42400280  0.37837329  0.29905578    -0.39600
O744        O  0.46030256  0.35571861  0.31671238    -0.37400
O745        O  0.42397048  0.49048518  0.34876819    -0.38300
O746        O  0.41118700  0.44986546  0.36820116    -0.34400
O747        O  0.55458897  0.42499051  0.31875331    -0.35800
O748        O  0.53522313  0.38580975  0.33576944    -0.40100
C749        C  0.44579046  0.39579252  0.70760788    -0.13800
C750        C  0.46975464  0.40514187  0.69217182     0.16600
C751        C  0.49678755  0.40565814  0.70586603     0.02900
C752        C  0.49945427  0.39615501  0.73419771    -0.12300
C753        C  0.47560588  0.38615017  0.74941479    -0.03400
C754        C  0.44846149  0.38626865  0.73596161     0.02100
C755        C  0.46577214  0.41817563  0.66346948     0.09000
N756        N  0.52196116  0.41471662  0.69091966     0.65300
H757        H  0.52049301  0.39535350  0.74393546     0.18200
N758        N  0.42338285  0.37636451  0.75051330     0.75800
H759        H  0.42482451  0.39615096  0.69768735     0.09700
C760        C  0.45608996  0.40273054  0.63911884     0.03400
C761        C  0.45483956  0.41647748  0.61228892    -0.05300
C762        C  0.46300429  0.44540900  0.60946292    -0.23700
C763        C  0.47045584  0.46109320  0.63436444     0.12700
C764        C  0.47161811  0.44746448  0.66084945    -0.12800
N765        N  0.44888186  0.37290906  0.64084559     0.64400
H766        H  0.44915841  0.40409566  0.59343972     0.12200
N767        N  0.47754289  0.49093783  0.63325177     0.61000
H768        H  0.47778798  0.45985754  0.67956241     0.08400
O769        O  0.40632246  0.39462869  0.76010174    -0.40500
O770        O  0.41405680  0.35135011  0.74550358    -0.39600
O771        O  0.53197055  0.43967366  0.69505610    -0.39600
O772        O  0.53775204  0.39602494  0.68001214    -0.37400
O773        O  0.50343069  0.49853220  0.63582803    -0.38300
O774        O  0.45849329  0.50856031  0.63969844    -0.34400
O775        O  0.42286194  0.36533133  0.64070107    -0.35800
O776        O  0.46748771  0.35479511  0.63434540    -0.40100
C777        C  0.01041705  0.77989347  0.06862703    -0.13800
C778        C  0.98967305  0.80055729  0.07411207     0.16600
C779        C  0.96953657  0.79540433  0.09599285     0.02900
C780        C  0.97227995  0.77150173  0.11365159    -0.12300
C781        C  0.99423100  0.75190004  0.10954399    -0.03400
C782        C  0.01253422  0.75534450  0.08583816     0.02100
C783        C  0.99031920  0.82798069  0.05806962     0.09000
N784        N  0.94680478  0.81469993  0.10140307     0.65300
H785        H  0.95732589  0.76845250  0.13111014     0.18200
N786        N  0.03404718  0.73496315  0.07957053     0.75800
H787        H  0.02539777  0.78314783  0.05124593     0.09700
C788        C  0.01437481  0.84655745  0.05942013     0.03400
C789        C  0.01336770  0.87346339  0.04648011    -0.05300
C790        C  0.98856730  0.88288621  0.03248914    -0.23700
C791        C  0.96522209  0.86352134  0.02940947     0.12700
C792        C  0.96632257  0.83630439  0.04220308    -0.12800
N793        N  0.03931052  0.83938788  0.07551918     0.64400
H794        H  0.03192671  0.88758165  0.04847808     0.12200
N795        N  0.93963232  0.87155118  0.01500597     0.61000
H796        H  0.94799588  0.82188969  0.04042606     0.08400
O797        O  0.05913142  0.73938367  0.08872544    -0.40500
O798        O  0.03007671  0.71781679  0.05901207    -0.39600
O799        O  0.92200106  0.80817223  0.09261106    -0.39600
O800        O  0.94964497  0.83286165  0.12123353    -0.37400
O801        O  0.93516330  0.86266180  0.98987251    -0.38300
O802        O  0.91888026  0.88030325  0.02956131    -0.34400
O803        O  0.06172502  0.83271608  0.06234487    -0.35800
O804        O  0.04125198  0.84734682  0.10125889    -0.40100
C805        C  0.94773596  0.16024353  0.09375009    -0.13800
C806        C  0.97409177  0.17342696  0.10106910     0.16600
C807        C  0.99919802  0.15720172  0.09853726     0.02900
C808        C  0.99759630  0.12923691  0.08850340    -0.12300
C809        C  0.97187642  0.11689846  0.07829858    -0.03400
C810        C  0.94643207  0.13231526  0.08211380     0.02100
C811        C  0.97558363  0.20318272  0.11289544     0.09000
N812        N  0.02703005  0.16928776  0.10393232     0.65300
H813        H  0.01750249  0.11779595  0.08682568     0.18200
N814        N  0.91929677  0.12043945  0.07398051     0.75800
H815        H  0.92805875  0.17165763  0.09690069     0.09700
C816        C  0.96274479  0.22703478  0.09958544     0.03400
C817        C  0.96774049  0.25480639  0.11042319    -0.05300
C818        C  0.98514707  0.25960717  0.13447268    -0.23700
C819        C  0.99788283  0.23548537  0.14772319     0.12700
C820        C  0.99197297  0.20792654  0.13758016    -0.12800
N821        N  0.94432779  0.22364539  0.07534765     0.64400
H822        H  0.95744595  0.27259316  0.10025320     0.12200
N823        N  0.01827066  0.23829606  0.17049512     0.61000
H824        H  0.00105029  0.18996532  0.14891250     0.08400
O825        O  0.90732423  0.12947471  0.05156303    -0.40500
O826        O  0.90437477  0.10763229  0.09263021    -0.39600
O827        O  0.04060844  0.16134483  0.12586762    -0.39600
O828        O  0.04080768  0.18008796  0.08328412    -0.37400
O829        O  0.01135556  0.22967461  0.19518456    -0.38300
O830        O  0.04444841  0.23973155  0.16417747    -0.34400
O831        O  0.91764847  0.22483061  0.07892416    -0.35800
O832        O  0.95439482  0.22762886  0.05063125    -0.40100
C833        C  0.52070826  0.56884013  0.32522254    -0.13800
C834        C  0.52474660  0.59861668  0.32387686     0.16600
C835        C  0.52869882  0.61407219  0.34975107     0.02900
C836        C  0.52765917  0.59960315  0.37611157    -0.12300
C837        C  0.52159668  0.57011798  0.37732387    -0.03400
C838        C  0.51869141  0.55461018  0.35151914     0.02100
C839        C  0.51900581  0.61305090  0.29607062     0.09000
N840        N  0.53237606  0.64456740  0.34984442     0.65300
H841        H  0.52963428  0.61181341  0.39576777     0.18200
N842        N  0.51190242  0.52465501  0.35150070     0.75800
H843        H  0.51681828  0.55676053  0.30576207     0.09700
C844        C  0.53377704  0.60649239  0.27060728     0.03400
C845        C  0.52515007  0.61849991  0.24440330    -0.05300
C846        C  0.50200585  0.63716535  0.24298652    -0.23700
C847        C  0.48675554  0.64287952  0.26841870     0.12700
C848        C  0.49527003  0.63073831  0.29436298    -0.12800
N849        N  0.55825968  0.58865148  0.27108543     0.64400
H850        H  0.53751000  0.61431529  0.22533603     0.12200
N851        N  0.46247819  0.66098002  0.26861241     0.61000
H852        H  0.48269528  0.63471392  0.31332749     0.08400
O853        O  0.53133825  0.50715667  0.34584741    -0.40500
O854        O  0.48617703  0.51687494  0.34806800    -0.39600
O855        O  0.51131110  0.65993338  0.35593903    -0.39600
O856        O  0.55727015  0.65508337  0.35245824    -0.37400
O857        O  0.46381729  0.68364603  0.28330485    -0.38300
O858        O  0.43823816  0.65005091  0.26304163    -0.34400
O859        O  0.55598968  0.56332747  0.26177656    -0.35800
O860        O  0.58275344  0.60023987  0.27305923    -0.40100
C861        C  0.50801759  0.59113884  0.72103939    -0.13800
C862        C  0.49413787  0.60331159  0.69741255     0.16600
C863        C  0.47820619  0.62853141  0.70159274     0.02900
C864        C  0.47804516  0.64152363  0.72827732    -0.12300
C865        C  0.49421119  0.63097286  0.75109940    -0.03400
C866        C  0.50865111  0.60484821  0.74765310     0.02100
C867        C  0.49544561  0.58882015  0.66917555     0.09000
N868        N  0.46257867  0.64202688  0.67908267     0.65300
H869        H  0.46570719  0.66080834  0.73084355     0.18200
N870        N  0.52522360  0.59242551  0.77003569     0.75800
H871        H  0.51862053  0.57083208  0.71891809     0.09700
C872        C  0.52125546  0.57854449  0.65742203     0.03400
C873        C  0.52100806  0.56553108  0.63045973    -0.05300
C874        C  0.49578304  0.56348756  0.61440410    -0.23700
C875        C  0.47006562  0.57356700  0.62621588     0.12700
C876        C  0.47003437  0.58485476  0.65372057    -0.12800
N877        N  0.54805971  0.58176589  0.67193627     0.64400
H878        H  0.54086317  0.55791776  0.62160654     0.12200
N879        N  0.44360333  0.57239969  0.61081231     0.61000
H880        H  0.44978178  0.59061927  0.66294228     0.08400
O881        O  0.55208923  0.59340824  0.76787281    -0.40500
O882        O  0.51396320  0.57266745  0.78489070    -0.39600
O883        O  0.43565778  0.63963770  0.67908619    -0.39600
O884        O  0.47395548  0.66318631  0.66637610    -0.37400
O885        O  0.42561296  0.55284933  0.61666978    -0.38300
O886        O  0.43506494  0.59482412  0.59854962    -0.34400
O887        O  0.55867445  0.56013960  0.68397180    -0.35800
O888        O  0.56435992  0.60253505  0.66527389    -0.40100
C889        C  0.01626130  0.19295214  0.95900689    -0.13800
C890        C  0.01063789  0.19493016  0.92956567     0.16600
C891        C  0.00766230  0.16966576  0.91333050     0.02900
C892        C  0.01019510  0.14318719  0.92651443    -0.12300
C893        C  0.01432784  0.14067833  0.95619631    -0.03400
C894        C  0.01802662  0.16605329  0.97255082     0.02100
C895        C  0.00909268  0.22307319  0.91521301     0.09000
N896        N  0.00028556  0.17035296  0.88361402     0.65300
H897        H  0.00772202  0.12424812  0.91324163     0.18200
N898        N  0.02252618  0.16521198  0.00277360     0.75800
H899        H  0.01911559  0.21233122  0.97153340     0.09700
C900        C  0.98739364  0.24274671  0.92121068     0.03400
C901        C  0.98336599  0.26609199  0.90298299    -0.05300
C902        C  0.00084150  0.27055106  0.87918269    -0.23700
C903        C  0.02434651  0.25239455  0.87485183     0.12700
C904        C  0.02812042  0.22885506  0.89280825    -0.12800
N905        N  0.96845667  0.23878460  0.94482098     0.64400
H906        H  0.96566599  0.27999344  0.90673650     0.12200
N907        N  0.04482239  0.25763630  0.85271889     0.61000
H908        H  0.04558364  0.21445801  0.88873160     0.08400
O909        O  0.00191610  0.17071659  0.01909679    -0.40500
O910        O  0.04770310  0.16788533  0.01229250    -0.39600
O911        O  0.01926638  0.16525427  0.86529073    -0.39600
O912        O  0.97432411  0.16769264  0.87653008    -0.37400
O913        O  0.06707595  0.27219899  0.85848652    -0.38300
O914        O  0.04479932  0.24147367  0.83108271    -0.34400
O915        O  0.97363205  0.25225289  0.96771277    -0.35800
O916        O  0.94339113  0.22949156  0.94015395    -0.40100
C917        C  0.03304609  0.86955962  0.88748368    -0.13800
C918        C  0.02322475  0.84654760  0.90453782     0.16600
C919        C  0.01754004  0.85142871  0.93365006     0.02900
C920        C  0.01988701  0.87918216  0.94470039    -0.12300
C921        C  0.02791352  0.90262045  0.92736849    -0.03400
C922        C  0.03559518  0.89751204  0.89871225     0.02100
C923        C  0.01807751  0.81780899  0.89163217     0.09000
N924        N  0.00731006  0.82883601  0.95181485     0.65300
H925        H  0.01373808  0.88273523  0.96675370     0.18200
N926        N  0.04445674  0.92047408  0.88037356     0.75800
H927        H  0.03804336  0.86591471  0.86517561     0.09700
C928        C  0.99629206  0.81323427  0.87116875     0.03400
C929        C  0.99188999  0.78602206  0.85932495    -0.05300
C930        C  0.00881116  0.76278327  0.86731102    -0.23700
C931        C  0.03039698  0.76716451  0.88824672     0.12700
C932        C  0.03477611  0.79456899  0.90017175    -0.12800
N933        N  0.97784554  0.83579954  0.86265955     0.64400
H934        H  0.97503919  0.78304452  0.84356896     0.12200
N935        N  0.04896286  0.74465826  0.89673375     0.61000
H936        H  0.05165823  0.79785393  0.91583047     0.08400
O937        O  0.02719984  0.92983009  0.86191970    -0.40500
O938        O  0.07080781  0.92596734  0.87765386    -0.39600
O939        O  0.02410904  0.81789927  0.96979998    -0.39600
O940        O  0.98072531  0.82486814  0.95462969    -0.37400
O941        O  0.04634735  0.73407114  0.92147166    -0.38300
O942        O  0.07227030  0.74175882  0.88365748    -0.34400
O943        O  0.98097359  0.84693605  0.83822163    -0.35800
O944        O  0.95438243  0.83856789  0.87549219    -0.40100
C945        C  0.06152319  0.37441008  0.91107649    -0.13800
C946        C  0.07082841  0.39963522  0.89739622     0.16600
C947        C  0.05925887  0.40658339  0.87042486     0.02900
C948        C  0.03963647  0.38778686  0.85730872    -0.12300
C949        C  0.03134639  0.36175865  0.87027574    -0.03400
C950        C  0.04207202  0.35544688  0.89793325     0.02100
C951        C  0.09526460  0.41573813  0.91019237     0.09000
N952        N  0.06813883  0.43177037  0.85523854     0.65300
H953        H  0.03116186  0.39349763  0.83649770     0.18200
N954        N  0.03505001  0.32930914  0.91250969     0.75800
H955        H  0.07039287  0.36878506  0.93176794     0.09700
C956        C  0.09304652  0.44395130  0.92062095     0.03400
C957        C  0.11662857  0.45718170  0.93388902    -0.05300
C958        C  0.14243251  0.44266368  0.93780821    -0.23700
C959        C  0.14444171  0.41419587  0.92777777     0.12700
C960        C  0.12107799  0.40125464  0.91384542    -0.12800
N961        N  0.06667482  0.45890307  0.91977242     0.64400
H962        H  0.11448365  0.47894924  0.94159250     0.12200
N963        N  0.16918399  0.39740972  0.93309575     0.61000
H964        H  0.12283389  0.37931846  0.90647929     0.08400
O965        O  0.05157667  0.30836451  0.91012431    -0.40500
O966        O  0.01859804  0.33020611  0.93382174    -0.39600
O967        O  0.08732134  0.42966808  0.83649519    -0.39600
O968        O  0.05120277  0.45248340  0.85374958    -0.37400
O969        O  0.16977811  0.38153291  0.95498279    -0.38300
O970        O  0.18619890  0.39266322  0.91283576    -0.34400
O971        O  0.04972552  0.45605230  0.94055950    -0.35800
O972        O  0.06488067  0.48090504  0.90415999    -0.40100
C973        C  0.05495367  0.38342474  0.09235314    -0.13800
C974        C  0.08274819  0.38238681  0.10385863     0.16600
C975        C  0.08728423  0.36460290  0.12793892     0.02900
C976        C  0.06461352  0.34799876  0.13918660    -0.12300
C977        C  0.03659194  0.34964369  0.12828331    -0.03400
C978        C  0.03196425  0.36777227  0.10444182     0.02100
C979        C  0.10571350  0.40158589  0.09144436     0.09000
N980        N  0.11371697  0.36540201  0.14335433     0.65300
H981        H  0.06874442  0.33476587  0.15778469     0.18200
N982        N  0.00391758  0.37267588  0.09358394     0.75800
H983        H  0.05079498  0.39736458  0.07428319     0.09700
C984        C  0.13191433  0.39115506  0.08101669     0.03400
C985        C  0.15228641  0.41015877  0.06911063    -0.05300
C986        C  0.14699078  0.43954368  0.06597280    -0.23700
C987        C  0.12048471  0.44989555  0.07569535     0.12700
C988        C  0.10052203  0.43108492  0.08861482    -0.12800
N989        N  0.13733745  0.36114411  0.07983222     0.64400
H990        H  0.17196804  0.40154187  0.06092575     0.12200
N991        N  0.11366358  0.47953941  0.07351717     0.61000
H992        H  0.08058622  0.43963383  0.09632672     0.08400
O993        O  0.99600541  0.35984684  0.07109297    -0.40500
O994        O  0.99165382  0.39553510  0.10046421    -0.39600
O995        O  0.11734563  0.38438617  0.16230311    -0.39600
O996        O  0.12824431  0.34290091  0.14482019    -0.37400
O997        O  0.09731282  0.48759939  0.05363934    -0.38300
O998        O  0.11692477  0.49525026  0.09526742    -0.34400
O999        O  0.12837948  0.34715287  0.05841999    -0.35800
O1000       O  0.15787699  0.35136909  0.09420182    -0.40100
C1001       C  0.13478099  0.62920824  0.08253023    -0.13800
C1002       C  0.11222456  0.61559269  0.09696348     0.16600
C1003       C  0.11040079  0.58523313  0.09678154     0.02900
C1004       C  0.13055126  0.56950012  0.08162920    -0.12300
C1005       C  0.15312098  0.58327602  0.06733857    -0.03400
C1006       C  0.15536845  0.61339954  0.06834571     0.02100
C1007       C  0.08929906  0.63353657  0.10891475     0.09000
N1008       N  0.08861094  0.56995816  0.11216976     0.65300
H1009       H  0.12879389  0.54637112  0.08131576     0.18200
N1010       N  0.17706745  0.62859182  0.05311176     0.75800
H1011       H  0.13588871  0.65237633  0.08114750     0.09700
C1012       C  0.09513267  0.65756605  0.12660194     0.03400
C1013       C  0.07264846  0.67425008  0.13628491    -0.05300
C1014       C  0.04424861  0.66745671  0.12903238    -0.23700
C1015       C  0.03849813  0.64412801  0.11059091     0.12700
C1016       C  0.06102140  0.62782826  0.10039365    -0.12800
N1017       N  0.12352496  0.66504585  0.13562104     0.64400
H1018       H  0.07742903  0.69246340  0.14998184     0.12200
N1019       N  0.00996750  0.63522492  0.10357813     0.61000
H1020       H  0.05625249  0.61050854  0.08564755     0.08400
O1021       O  0.17050694  0.63982616  0.02948689    -0.40500
O1022       O  0.19833012  0.63838845  0.06686413    -0.39600
O1023       O  0.06813695  0.55848248  0.09847018    -0.39600
O1024       O  0.09408875  0.56109592  0.13708166    -0.37400
O1025       O  0.99986938  0.64178156  0.07940955    -0.38300
O1026       O  0.99901598  0.61427457  0.11697797    -0.34400
O1027       O  0.13566856  0.68688243  0.12484208    -0.35800
O1028       O  0.13241147  0.65568161  0.15932000    -0.40100
C1029       C  0.12762499  0.63018350  0.92652240    -0.13800
C1030       C  0.10305861  0.61652551  0.91547730     0.16600
C1031       C  0.10018130  0.58642754  0.91776198     0.02900
C1032       C  0.12176534  0.57074705  0.93106753    -0.12300
C1033       C  0.14679057  0.58434648  0.94120852    -0.03400
C1034       C  0.14961580  0.61445220  0.93889276     0.02100
C1035       C  0.08284415  0.63412754  0.89889419     0.09000
N1036       N  0.07676929  0.57114739  0.90485534     0.65300
H1037       H  0.11948978  0.54759969  0.93235259     0.18200
N1038       N  0.17439704  0.62954386  0.94924215     0.75800
H1039       H  0.13014105  0.65327532  0.92469650     0.09700
C1040       C  0.05443959  0.63846859  0.90756084     0.03400
C1041       C  0.03692753  0.65641896  0.89154932    -0.05300
C1042       C  0.04723102  0.67098165  0.86732998    -0.23700
C1043       C  0.07609432  0.66740820  0.85920413     0.12700
C1044       C  0.09333861  0.64881603  0.87481873    -0.12800
N1045       N  0.04333859  0.62633003  0.93337005     0.64400
H1046       H  0.01496410  0.65877778  0.89823141     0.12200
N1047       N  0.08883331  0.68334220  0.83622137     0.61000
H1048       H  0.11540275  0.64626506  0.86842429     0.08400
O1049       O  0.19518412  0.63376054  0.93255087    -0.40500
O1050       O  0.17212422  0.64531928  0.97097167    -0.39600
O1051       O  0.07983059  0.56127329  0.87995262    -0.39600
O1052       O  0.05784274  0.56010183  0.92077839    -0.37400
O1053       O  0.10306043  0.70584156  0.84201633    -0.38300
O1054       O  0.09357483  0.67069343  0.81290657    -0.34400
O1055       O  0.04511028  0.64098479  0.95600016    -0.35800
O1056       O  0.02421730  0.60699908  0.93162187    -0.40100
C1057       C  0.40595496  0.38444552  0.88063804    -0.13800
C1058       C  0.39229125  0.40745140  0.86738159     0.16600
C1059       C  0.40180369  0.41702820  0.84038790     0.02900
C1060       C  0.42413059  0.40301422  0.82683579    -0.12300
C1061       C  0.43738135  0.37955217  0.83967629    -0.03400
C1062       C  0.42862281  0.37067899  0.86726585     0.02100
C1063       C  0.37051351  0.42292658  0.88374835     0.09000
N1064       N  0.38913959  0.44093668  0.82640592     0.65300
H1065       H  0.43111824  0.41059566  0.80608045     0.18200
N1066       N  0.44400257  0.34961900  0.88304613     0.75800
H1067       H  0.39969800  0.37788001  0.90201318     0.09700
C1068       C  0.34370706  0.41033813  0.89001772     0.03400
C1069       C  0.32512103  0.42407492  0.90867766    -0.05300
C1070       C  0.33250627  0.45063153  0.92107602    -0.23700
C1071       C  0.35910371  0.46368763  0.91384678     0.12700
C1072       C  0.37785856  0.44959283  0.89556855    -0.12800
N1073       N  0.33457925  0.38413726  0.87680733     0.64400
H1074       H  0.30477657  0.41375028  0.91352877     0.12200
N1075       N  0.36693432  0.49178563  0.92352535     0.61000
H1076       H  0.39843165  0.45945911  0.89072549     0.08400
O1077       O  0.46376486  0.35778990  0.89974699    -0.40500
O1078       O  0.43303446  0.32493915  0.88636122    -0.39600
O1079       O  0.40179411  0.46503000  0.82747656    -0.39600
O1080       O  0.37094719  0.43632547  0.80687966    -0.37400
O1081       O  0.38502313  0.49444717  0.94347600    -0.38300
O1082       O  0.36261545  0.51282781  0.90715309    -0.34400
O1083       O  0.33700939  0.36087259  0.89033599    -0.35800
O1084       O  0.31775705  0.38515120  0.85567639    -0.40100
C1085       C  0.38351379  0.59509554  0.91429661    -0.13800
C1086       C  0.37580094  0.60203957  0.88614634     0.16600
C1087       C  0.34812484  0.59425155  0.87636411     0.02900
C1088       C  0.32862574  0.58097957  0.89514332    -0.12300
C1089       C  0.33612019  0.57470714  0.92364839    -0.03400
C1090       C  0.36415650  0.58175370  0.93303483     0.02100
C1091       C  0.39746450  0.61669522  0.86765268     0.09000
N1092       N  0.33921680  0.59987591  0.84763720     0.65300
H1093       H  0.30749861  0.57527556  0.88718029     0.18200
N1094       N  0.37333180  0.57636239  0.96169954     0.75800
H1095       H  0.40495931  0.59995279  0.92186943     0.09700
C1096       C  0.41134643  0.64235442  0.87650080     0.03400
C1097       C  0.43368438  0.65404176  0.86033822    -0.05300
C1098       C  0.44288458  0.64100510  0.83506430    -0.23700
C1099       C  0.42888205  0.61547757  0.82588811     0.12700
C1100       C  0.40645874  0.60358452  0.84226219    -0.12800
N1101       N  0.40314041  0.65703186  0.90191472     0.64400
H1102       H  0.44432432  0.67335115  0.86809954     0.12200
N1103       N  0.43634331  0.60175646  0.79970662     0.61000
H1104       H  0.39647920  0.58361777  0.83539457     0.08400
O1105       O  0.37334902  0.59666965  0.97949705    -0.40500
O1106       O  0.38884446  0.55502837  0.96656099    -0.39600
O1107       O  0.33941871  0.57973328  0.82963518    -0.39600
O1108       O  0.32393395  0.62137498  0.84272916    -0.37400
O1109       O  0.45106768  0.57935749  0.80067151    -0.38300
O1110       O  0.42163505  0.60662777  0.77759773    -0.34400
O1111       O  0.41860798  0.65489895  0.92397154    -0.35800
O1112       O  0.38680447  0.67816921  0.89967981    -0.40100
C1113       C  0.41670028  0.63686801  0.11310281    -0.13800
C1114       C  0.40419690  0.61203380  0.12480952     0.16600
C1115       C  0.41587693  0.60065567  0.15034814     0.02900
C1116       C  0.43817963  0.61534790  0.16443978    -0.12300
C1117       C  0.44966552  0.64094678  0.15337597    -0.03400
C1118       C  0.43929482  0.65121921  0.12681200     0.02100
C1119       C  0.38073946  0.59761563  0.10841663     0.09000
N1120       N  0.40532552  0.57448517  0.16260698     0.65300
H1121       H  0.44615209  0.60690300  0.18449831     0.18200
N1122       N  0.45245570  0.67505298  0.11239064     0.75800
H1123       H  0.40944077  0.64478505  0.09256109     0.09700
C1124       C  0.35672531  0.61284574  0.09847994     0.03400
C1125       C  0.33701664  0.59956725  0.07998638    -0.05300
C1126       C  0.34031897  0.57107502  0.07120681    -0.23700
C1127       C  0.36383281  0.55565486  0.08175834     0.12700
C1128       C  0.38394567  0.56911289  0.09974441    -0.12800
N1129       N  0.35161905  0.64164079  0.10732008     0.64400
H1130       H  0.31889908  0.61170004  0.07247701     0.12200
N1131       N  0.36715331  0.52600375  0.07547971     0.61000
H1132       H  0.40246771  0.55724792  0.10652337     0.08400
O1133       O  0.47135142  0.67024379  0.09389651    -0.40500
O1134       O  0.43953181  0.69856956  0.11146780    -0.39600
O1135       O  0.41980384  0.55209493  0.15967104    -0.39600
O1136       O  0.38777681  0.57571548  0.18297408    -0.37400
O1137       O  0.38662316  0.51890054  0.05846894    -0.38300
O1138       O  0.35734536  0.50761931  0.09286396    -0.34400
O1139       O  0.35512030  0.66178810  0.08953813    -0.35800
O1140       O  0.33620211  0.64573249  0.12897467    -0.40100
C1141       C  0.41134252  0.41434898  0.14012217    -0.13800
C1142       C  0.40014099  0.40023353  0.11606723     0.16600
C1143       C  0.41191254  0.37402058  0.10755171     0.02900
C1144       C  0.43442586  0.36240987  0.12318752    -0.12300
C1145       C  0.44554904  0.37618495  0.14766149    -0.03400
C1146       C  0.43385826  0.40271899  0.15592852     0.02100
C1147       C  0.37838263  0.41475829  0.09851466     0.09000
N1148       N  0.40100313  0.35862890  0.08333762     0.65300
H1149       H  0.44337582  0.34245225  0.11588124     0.18200
N1150       N  0.44404034  0.41817286  0.18036599     0.75800
H1151       H  0.40286475  0.43487740  0.14640999     0.09700
C1152       C  0.35117398  0.42116383  0.10931012     0.03400
C1153       C  0.33181181  0.43595928  0.09225116    -0.05300
C1154       C  0.33906111  0.44529467  0.06455231    -0.23700
C1155       C  0.36686198  0.43976927  0.05418342     0.12700
C1156       C  0.38598182  0.42433924  0.07112277    -0.12800
N1157       N  0.34272662  0.41283716  0.13750885     0.64400
H1158       H  0.31097051  0.44044733  0.10104635     0.12200
N1159       N  0.37612444  0.44910024  0.02652618     0.61000
H1160       H  0.40719707  0.42025425  0.06300835     0.08400
O1161       O  0.45910097  0.44053750  0.17644888    -0.40500
O1162       O  0.43088533  0.41521725  0.20372593    -0.39600
O1163       O  0.41511696  0.35892787  0.06038231    -0.39600
O1164       O  0.38239923  0.33910994  0.08721326    -0.37400
O1165       O  0.39151441  0.47149306  0.02460134    -0.38300
O1166       O  0.37658249  0.43112435  0.00640177    -0.34400
O1167       O  0.34282228  0.43151795  0.15701947    -0.35800
O1168       O  0.32779803  0.39027696  0.14070883    -0.40100
C1169       C  0.56284027  0.40927776  0.11013795    -0.13800
C1170       C  0.59084143  0.40109541  0.11659720     0.16600
C1171       C  0.59560353  0.38188113  0.13932779     0.02900
C1172       C  0.57232315  0.37023426  0.15415952    -0.12300
C1173       C  0.54422807  0.37766941  0.14715358    -0.03400
C1174       C  0.53954202  0.39801285  0.12532387     0.02100
C1175       C  0.61437902  0.41497138  0.10058557     0.09000
N1176       N  0.62375895  0.37494331  0.14864268     0.65300
H1177       H  0.57625637  0.35532861  0.17150668     0.18200
N1178       N  0.51147104  0.40678174  0.11747277     0.75800
H1179       H  0.55905974  0.42456581  0.09308565     0.09700
C1180       C  0.63161729  0.39981405  0.08122507     0.03400
C1181       C  0.65166487  0.41481788  0.06459794    -0.05300
C1182       C  0.65400376  0.44471927  0.06621442    -0.23700
C1183       C  0.63687909  0.45984393  0.08545950     0.12700
C1184       C  0.61745829  0.44485736  0.10266981    -0.12800
N1185       N  0.62769698  0.36972957  0.07652424     0.64400
H1186       H  0.66473901  0.40319324  0.04958335     0.12200
N1187       N  0.63930305  0.49031865  0.08811078     0.61000
H1188       H  0.60418721  0.45667958  0.11733476     0.08400
O1189       O  0.49969843  0.39561027  0.09576203    -0.40500
O1190       O  0.50282030  0.43070276  0.12620230    -0.39600
O1191       O  0.63425732  0.38827508  0.16978998    -0.39600
O1192       O  0.63334980  0.35058346  0.14260272    -0.37400
O1193       O  0.62151151  0.50589972  0.07535420    -0.38300
O1194       O  0.65437300  0.50092516  0.10801877    -0.34400
O1195       O  0.61080331  0.36153165  0.05695949    -0.35800
O1196       O  0.64686514  0.35291602  0.08486285    -0.40100
C1197       C  0.60900616  0.59900395  0.07813299    -0.13800
C1198       C  0.61437941  0.59985241  0.10776816     0.16600
C1199       C  0.63941236  0.58686031  0.11831826     0.02900
C1200       C  0.65859449  0.57434220  0.09921238    -0.12300
C1201       C  0.65308410  0.57345844  0.06965852    -0.03400
C1202       C  0.62775875  0.58568606  0.05919079     0.02100
C1203       C  0.59228279  0.61271844  0.12663973     0.09000
N1204       N  0.64492118  0.58425540  0.14828679     0.65300
H1205       H  0.67755243  0.56429924  0.10772828     0.18200
N1206       N  0.62106811  0.58555165  0.02934416     0.75800
H1207       H  0.58988173  0.60868510  0.06958270     0.09700
C1208       C  0.59784728  0.63655826  0.14459403     0.03400
C1209       C  0.57535121  0.64932961  0.15941046    -0.05300
C1210       C  0.54686148  0.63973455  0.15616768    -0.23700
C1211       C  0.54133423  0.61586671  0.13815929     0.12700
C1212       C  0.56396603  0.60251613  0.12410637    -0.12800
N1213       N  0.62562628  0.64960859  0.14657855     0.64400
H1214       H  0.58023498  0.66755042  0.17304290     0.12200
N1215       N  0.51289217  0.60615796  0.13181117     0.61000
H1216       H  0.55916260  0.58459509  0.11003313     0.08400
O1217       O  0.62901295  0.60650283  0.01403149    -0.40500
O1218       O  0.60186733  0.56859555  0.02010084    -0.39600
O1219       O  0.63534611  0.56236775  0.16122900    -0.39600
O1220       O  0.66614449  0.59761523  0.15881080    -0.37400
O1221       O  0.50083585  0.61550031  0.10955755    -0.38300
O1222       O  0.50415643  0.58269144  0.14237145    -0.34400
O1223       O  0.63207405  0.66947579  0.12927984    -0.35800
O1224       O  0.63884629  0.64838648  0.17011832    -0.40100
C1225       C  0.60286675  0.56809491  0.89752913    -0.13800
C1226       C  0.60593014  0.59656582  0.88854868     0.16600
C1227       C  0.62984137  0.61292222  0.89769709     0.02900
C1228       C  0.65065323  0.60040026  0.91500422    -0.12300
C1229       C  0.64768264  0.57188769  0.92419237    -0.03400
C1230       C  0.62330081  0.55568078  0.91539676     0.02100
C1231       C  0.58308302  0.60932164  0.87110450     0.09000
N1232       N  0.63255002  0.64269336  0.89092124     0.65300
H1233       H  0.66888045  0.61331605  0.92191207     0.18200
N1234       N  0.61950237  0.52623281  0.92311854     0.75800
H1235       H  0.58439824  0.55546413  0.89072566     0.09700
C1236       C  0.58592881  0.61297450  0.84128215     0.03400
C1237       C  0.56469941  0.62718427  0.82597134    -0.05300
C1238       C  0.53993991  0.63620380  0.83965524    -0.23700
C1239       C  0.53614477  0.63089193  0.86894830     0.12700
C1240       C  0.55784339  0.61775112  0.88462710    -0.12800
N1241       N  0.60955941  0.60146814  0.82610188     0.64400
H1242       H  0.56764000  0.63144670  0.80339426     0.12200
N1243       N  0.51039245  0.63897188  0.88286564     0.61000
H1244       H  0.55515209  0.61432091  0.90740598     0.08400
O1245       O  0.60428733  0.51990695  0.94453244    -0.40500
O1246       O  0.62363869  0.50738964  0.90434383    -0.39600
O1247       O  0.62371467  0.66084218  0.90866588    -0.39600
O1248       O  0.65011640  0.65063510  0.87197120    -0.37400
O1249       O  0.50663703  0.66494024  0.88914341    -0.38300
O1250       O  0.48933866  0.62170192  0.88296949    -0.34400
O1251       O  0.60582431  0.57870484  0.81188885    -0.35800
O1252       O  0.63081490  0.61749713  0.82056212    -0.40100
C1253       C  0.59931741  0.42750055  0.91373954    -0.13800
C1254       C  0.60367332  0.42766882  0.88394669     0.16600
C1255       C  0.62948045  0.44001558  0.87353411     0.02900
C1256       C  0.65061769  0.45000118  0.89274028    -0.12300
C1257       C  0.64631629  0.44983816  0.92249880    -0.03400
C1258       C  0.61994563  0.43877138  0.93291890     0.02100
C1259       C  0.58086715  0.41490036  0.86470055     0.09000
N1260       N  0.63369157  0.44524561  0.84370672     0.65300
H1261       H  0.67003768  0.45956132  0.88410941     0.18200
N1262       N  0.61392883  0.43788129  0.96286928     0.75800
H1263       H  0.57964103  0.41842734  0.92227588     0.09700
C1264       C  0.58604787  0.39139430  0.84649069     0.03400
C1265       C  0.56354720  0.37849762  0.83084938    -0.05300
C1266       C  0.53503424  0.38724627  0.83358138    -0.23700
C1267       C  0.52982670  0.41102682  0.85174403     0.12700
C1268       C  0.55262562  0.42457583  0.86667709    -0.12800
N1269       N  0.61338268  0.37829081  0.84561300     0.64400
H1270       H  0.56849003  0.36055585  0.81715449     0.12200
N1271       N  0.50153390  0.42063673  0.85718296     0.61000
H1272       H  0.54799998  0.44226364  0.88085138     0.08400
O1273       O  0.61647054  0.41447837  0.97615296    -0.40500
O1274       O  0.59868897  0.45715443  0.97355762    -0.39600
O1275       O  0.62575834  0.46890904  0.83352086    -0.39600
O1276       O  0.65301358  0.43185914  0.83088515    -0.37400
O1277       O  0.48887883  0.41181322  0.87938703    -0.38300
O1278       O  0.49350079  0.44366849  0.84571265    -0.34400
O1279       O  0.61880754  0.35896654  0.86367023    -0.35800
O1280       O  0.62726011  0.37900698  0.82252540    -0.40100
C1281       C  0.85770191  0.41409726  0.09847446    -0.13800
C1282       C  0.88525804  0.41387502  0.08702730     0.16600
C1283       C  0.89153603  0.43077175  0.06284491     0.02900
C1284       C  0.87006188  0.44703845  0.05007846    -0.12300
C1285       C  0.84185064  0.44604598  0.06033281    -0.03400
C1286       C  0.83605005  0.42997183  0.08551867     0.02100
C1287       C  0.90662768  0.39483425  0.10004525     0.09000
N1288       N  0.91953613  0.43142799  0.05081561     0.65300
H1289       H  0.87550122  0.46017249  0.03174968     0.18200
N1290       N  0.80879116  0.43051465  0.09913024     0.75800
H1291       H  0.85287789  0.40157401  0.11747277     0.09700
C1292       C  0.92128585  0.40255543  0.12522362     0.03400
C1293       C  0.93924638  0.38292652  0.13845272    -0.05300
C1294       C  0.94257479  0.35502116  0.12758575    -0.23700
C1295       C  0.92825259  0.34757033  0.10189047     0.12700
C1296       C  0.91049692  0.36751189  0.08841204    -0.12800
N1297       N  0.91780219  0.43006606  0.13800010     0.64400
H1298       H  0.95063112  0.38968167  0.15758432     0.12200
N1299       N  0.93008070  0.31960903  0.08983461     0.61000
H1300       H  0.89890680  0.36130095  0.06920891     0.08400
O1301       O  0.80547940  0.44686187  0.12030480    -0.40500
O1302       O  0.79127430  0.41002094  0.09512198    -0.39600
O1303       O  0.92471135  0.41593773  0.02940350    -0.39600
O1304       O  0.93639404  0.45193385  0.05694223    -0.37400
O1305       O  0.91087317  0.30124246  0.09578161    -0.38300
O1306       O  0.94459466  0.31643070  0.06739126    -0.34400
O1307       O  0.90100016  0.43242316  0.15888887    -0.35800
O1308       O  0.93656966  0.44935035  0.13379303    -0.40100
C1309       C  0.88580753  0.42646264  0.91845780    -0.13800
C1310       C  0.87662993  0.41097492  0.89449665     0.16600
C1311       C  0.84809540  0.41282172  0.88529325     0.02900
C1312       C  0.82919097  0.43017570  0.90018045    -0.12300
C1313       C  0.83802788  0.44542945  0.92470485    -0.03400
C1314       C  0.86690977  0.44346294  0.93372371     0.02100
C1315       C  0.89660329  0.39072793  0.88166421     0.09000
N1316       N  0.83763636  0.39632978  0.86164534     0.65300
H1317       H  0.80729746  0.43124694  0.89266731     0.18200
N1318       N  0.87706102  0.45649309  0.95951804     0.75800
H1319       H  0.90761129  0.42442629  0.92605096     0.09700
C1320       C  0.91486258  0.39898161  0.85921738     0.03400
C1321       C  0.93545731  0.37998050  0.84955639    -0.05300
C1322       C  0.93856647  0.35286804  0.86229056    -0.23700
C1323       C  0.92069662  0.34502446  0.88532410     0.12700
C1324       C  0.89973727  0.36387568  0.89460290    -0.12800
N1325       N  0.91352859  0.42694780  0.84683015     0.64400
H1326       H  0.94951845  0.38667664  0.83232006     0.12200
N1327       N  0.92350651  0.31827696  0.89977735     0.61000
H1328       H  0.88622330  0.35779840  0.91248531     0.08400
O1329       O  0.89279802  0.47868357  0.95796820    -0.40500
O1330       O  0.87770392  0.44147076  0.98195932    -0.39600
O1331       O  0.82170606  0.37473943  0.86636877    -0.39600
O1332       O  0.83793768  0.40733033  0.83697223    -0.37400
O1333       O  0.90697301  0.29772950  0.89293542    -0.38300
O1334       O  0.93508556  0.31821027  0.92420762    -0.34400
O1335       O  0.93170738  0.44584941  0.85421590    -0.35800
O1336       O  0.89910319  0.43055179  0.82429198    -0.40100
C1337       C  0.89001577  0.60590169  0.92519036    -0.13800
C1338       C  0.88162617  0.62922699  0.90837538     0.16600
C1339       C  0.85207159  0.63248139  0.90304406     0.02900
C1340       C  0.83196094  0.61309983  0.91514154    -0.12300
C1341       C  0.84040124  0.58940261  0.93179561    -0.03400
C1342       C  0.87020074  0.58581643  0.93608167     0.02100
C1343       C  0.90476109  0.64650049  0.89377617     0.09000
N1344       N  0.84197970  0.65392787  0.88385439     0.65300
H1345       H  0.80950354  0.61638166  0.91077254     0.18200
N1346       N  0.88128437  0.56142096  0.95048978     0.75800
H1347       H  0.91258459  0.60246581  0.92896089     0.09700
C1348       C  0.90960588  0.67634102  0.89792608     0.03400
C1349       C  0.93320645  0.69027428  0.88492355    -0.05300
C1350       C  0.95254482  0.67508088  0.86820078    -0.23700
C1351       C  0.94834280  0.64521659  0.86491135     0.12700
C1352       C  0.92457250  0.63145933  0.87726795    -0.12800
N1353       N  0.89182518  0.69275958  0.91618248     0.64400
H1354       H  0.93630402  0.71319006  0.88772645     0.12200
N1355       N  0.96855343  0.62823559  0.84994322     0.61000
H1356       H  0.92184379  0.60851314  0.87434105     0.08400
O1357       O  0.89279902  0.56502043  0.97465277    -0.40500
O1358       O  0.88798102  0.53985782  0.93584538    -0.39600
O1359       O  0.83818817  0.64735130  0.85791964    -0.39600
O1360       O  0.82861972  0.67486324  0.89395060    -0.37400
O1361       O  0.96239455  0.61926109  0.82518811    -0.38300
O1362       O  0.98774025  0.61576253  0.86407349    -0.34400
O1363       O  0.89975704  0.69677329  0.94171873    -0.35800
O1364       O  0.87507712  0.71047344  0.90491562    -0.40100
C1365       C  0.89011723  0.59393229  0.07335982    -0.13800
C1366       C  0.88096026  0.61927515  0.08607751     0.16600
C1367       C  0.85211876  0.62696111  0.08393229     0.02900
C1368       C  0.83293034  0.60908908  0.06928583    -0.12300
C1369       C  0.84170719  0.58303479  0.05728935    -0.03400
C1370       C  0.87078338  0.57545956  0.05955347     0.02100
C1371       C  0.90212779  0.63724048  0.10130449     0.09000
N1372       N  0.84155061  0.65176413  0.09804126     0.65300
H1373       H  0.81081414  0.61547200  0.06793507     0.18200
N1374       N  0.88072714  0.54817267  0.05045218     0.75800
H1375       H  0.91236915  0.58800233  0.07494270     0.09700
C1376       C  0.91681936  0.62668957  0.12536647     0.03400
C1377       C  0.93858380  0.64319032  0.13786268    -0.05300
C1378       C  0.94615753  0.67007496  0.12663011    -0.23700
C1379       C  0.93142412  0.68071547  0.10254943     0.12700
C1380       C  0.90945385  0.66423298  0.09015689    -0.12800
N1381       N  0.90964540  0.59940404  0.13755528     0.64400
H1382       H  0.94985322  0.63483320  0.15630738     0.12200
N1383       N  0.93748728  0.70860588  0.09119724     0.61000
H1384       H  0.89835729  0.67233286  0.07149442     0.08400
O1385       O  0.88192260  0.52814782  0.06857396    -0.40500
O1386       O  0.89612589  0.54685484  0.02844629    -0.39600
O1387       O  0.83600452  0.67378546  0.08345512    -0.39600
O1388       O  0.83053596  0.64888229  0.12250554    -0.37400
O1389       O  0.95256124  0.71091058  0.06895155    -0.38300
O1390       O  0.92148385  0.72898560  0.09798711    -0.34400
O1391       O  0.92565493  0.57840807  0.13300274    -0.35800
O1392       O  0.89213523  0.59814928  0.15799863    -0.40100
C1393       C  0.07117946  0.01378578  0.77234704    -0.13800
C1394       C  0.07722300  0.03928199  0.78733140     0.16600
C1395       C  0.09923892  0.05776798  0.77731404     0.02900
C1396       C  0.11619537  0.04939464  0.75444976    -0.12300
C1397       C  0.11099453  0.02339904  0.74037393    -0.03400
C1398       C  0.08757946  0.00594167  0.74866440     0.02100
C1399       C  0.06528563  0.04268551  0.81643328     0.09000
N1400       N  0.10484470  0.08505235  0.79021440     0.65300
H1401       H  0.13365561  0.06334826  0.74760004     0.18200
N1402       N  0.08131632  0.97937626  0.73461279     0.75800
H1403       H  0.05483926  0.99900977  0.78008889     0.09700
C1404       C  0.03567902  0.04173108  0.82218705     0.03400
C1405       C  0.02609824  0.04054986  0.85057060    -0.05300
C1406       C  0.04554922  0.03955204  0.87348316    -0.23700
C1407       C  0.07516368  0.04106862  0.86760206     0.12700
C1408       C  0.08460256  0.04276104  0.83937960    -0.12800
N1409       N  0.01505690  0.04144629  0.79958893     0.64400
H1410       H  0.00331775  0.03910046  0.85461104     0.12200
N1411       N  0.09613650  0.04088712  0.88989134     0.61000
H1412       H  0.10739920  0.04267327  0.83536015     0.08400
O1413       O  0.09020851  0.95638836  0.74548484    -0.40500
O1414       O  0.06113269  0.97821999  0.71665047    -0.39600
O1415       O  0.12700731  0.08844294  0.80538754    -0.39600
O1416       O  0.09315909  0.10685123  0.77963647    -0.37400
O1417       O  0.10876747  0.06414309  0.89626510    -0.38300
O1418       O  0.10771974  0.01751004  0.89642776    -0.34400
O1419       O  0.00232484  0.01818342  0.79338999    -0.35800
O1420       O  0.00416126  0.06480442  0.79191507    -0.40100
C1421       C  0.09567407  0.01614430  0.14981969    -0.13800
C1422       C  0.08427667  0.03683045  0.16798669     0.16600
C1423       C  0.06674870  0.05823790  0.15618360     0.02900
C1424       C  0.05912293  0.05711066  0.12709423    -0.12300
C1425       C  0.06899753  0.03515279  0.10937164    -0.03400
C1426       C  0.08847014  0.01525673  0.12075845     0.02100
C1427       C  0.09335464  0.03658371  0.19844732     0.09000
N1428       N  0.05552577  0.08052235  0.17354510     0.65300
H1429       H  0.04417294  0.07256016  0.11873708     0.18200
N1430       N  0.10165334  0.99437873  0.10302193     0.75800
H1431       H  0.11047263  0.00059835  0.15827561     0.09700
C1432       C  0.08595471  0.01364313  0.21697619     0.03400
C1433       C  0.09950380  0.01097417  0.24353286    -0.05300
C1434       C  0.12129293  0.03004895  0.25170838    -0.23700
C1435       C  0.12781827  0.05386723  0.23390704     0.12700
C1436       C  0.11361531  0.05702247  0.20764800    -0.12800
N1437       N  0.06530478  0.99225345  0.20906415     0.64400
H1438       H  0.09419930  0.99272819  0.25704077     0.12200
N1439       N  0.14929414  0.07462632  0.24158907     0.61000
H1440       H  0.11970860  0.07460361  0.19361419     0.08400
O1441       O  0.09383311  0.96843625  0.10512669    -0.40500
O1442       O  0.12566922  0.00030387  0.09210568    -0.39600
O1443       O  0.06687359  0.10523872  0.17230545    -0.39600
O1444       O  0.03050254  0.07773401  0.18324862    -0.37400
O1445       O  0.14163787  0.09845256  0.25144581    -0.38300
O1446       O  0.17356729  0.07303185  0.23012940    -0.34400
O1447       O  0.07391652  0.96927814  0.19808459    -0.35800
O1448       O  0.04183293  0.99179629  0.22219189    -0.40100
C1449       C  0.21721464  0.53418489  0.23775089    -0.13800
C1450       C  0.20737850  0.51218997  0.21983962     0.16600
C1451       C  0.19036758  0.48990661  0.23129726     0.02900
C1452       C  0.18375700  0.48973956  0.26035192    -0.12300
C1453       C  0.19394964  0.51140207  0.27895692    -0.03400
C1454       C  0.21056276  0.53424535  0.26689175     0.02100
C1455       C  0.21645818  0.51211575  0.18966556     0.09000
N1456       N  0.17890226  0.46749996  0.21363806     0.65300
H1457       H  0.17012905  0.47241993  0.26749169     0.18200
N1458       N  0.22121089  0.55770020  0.28371631     0.75800
H1459       H  0.23054777  0.55133343  0.22911115     0.09700
C1460       C  0.20924846  0.53445128  0.17080364     0.03400
C1461       C  0.21889440  0.53391598  0.14264084    -0.05300
C1462       C  0.23603383  0.51161286  0.13271917    -0.23700
C1463       C  0.24424370  0.48986723  0.15199611     0.12700
C1464       C  0.23425304  0.49024090  0.18017856    -0.12800
N1465       N  0.19158896  0.55750014  0.17960724     0.64400
H1466       H  0.21207112  0.55071089  0.12820773     0.12200
N1467       N  0.26388267  0.46824055  0.14391842     0.61000
H1468       H  0.24090787  0.47366803  0.19493774     0.08400
O1469       O  0.20718401  0.58056502  0.28415798    -0.40500
O1470       O  0.24760905  0.55900383  0.28929188    -0.39600
O1471       O  0.19108626  0.44357182  0.21345520    -0.39600
O1472       O  0.15313012  0.46872525  0.20575561    -0.37400
O1473       O  0.29013496  0.47226562  0.14908891    -0.38300
O1474       O  0.25465835  0.44305236  0.13945349    -0.34400
O1475       O  0.20310775  0.58155882  0.18504426    -0.35800
O1476       O  0.16518038  0.55622357  0.17409016    -0.40100
C1477       C  0.31313815  0.48418334  0.44987390    -0.13800
C1478       C  0.31053012  0.48925635  0.42035763     0.16600
C1479       C  0.33541878  0.49076945  0.40355889     0.02900
C1480       C  0.36219580  0.48866678  0.41644813    -0.12300
C1481       C  0.36523490  0.48571743  0.44623052    -0.03400
C1482       C  0.34020975  0.48245278  0.46298778     0.02100
C1483       C  0.28226896  0.49601950  0.40776502     0.09000
N1484       N  0.33404301  0.49538525  0.37336501     0.65300
H1485       H  0.38089316  0.49047887  0.40290283     0.18200
N1486       N  0.34167034  0.47931493  0.49336450     0.75800
H1487       H  0.29411687  0.48303669  0.46301474     0.09700
C1488       C  0.26023219  0.47514614  0.40495899     0.03400
C1489       C  0.23473336  0.48218603  0.39103888    -0.05300
C1490       C  0.23089893  0.50960773  0.37965933    -0.23700
C1491       C  0.25192541  0.53094939  0.38407153     0.12700
C1492       C  0.27749643  0.52408522  0.39796765    -0.12800
N1493       N  0.26407704  0.44625917  0.41419711     0.64400
H1494       H  0.21855570  0.46572202  0.38755686     0.12200
N1495       N  0.24754038  0.55950016  0.37406643     0.61000
H1496       H  0.29390584  0.54055001  0.40070067     0.08400
O1497       O  0.33771615  0.45479360  0.50425443    -0.40500
O1498       O  0.33926264  0.50120871  0.50893713    -0.39600
O1499       O  0.34004551  0.52000541  0.36361221    -0.39600
O1500       O  0.33530136  0.47403533  0.35689777    -0.37400
O1501       O  0.23015885  0.57526666  0.38697305    -0.38300
O1502       O  0.25608937  0.56663590  0.34947268    -0.34400
O1503       O  0.25111615  0.43748971  0.43624983    -0.35800
O1504       O  0.27308398  0.42813920  0.39650566    -0.40100
C1505       C  0.80942059  0.50494451  0.22899389    -0.13800
C1506       C  0.78165549  0.50715654  0.21794781     0.16600
C1507       C  0.75881329  0.50946537  0.23717226     0.02900
C1508       C  0.76384253  0.50961855  0.26659201    -0.12300
C1509       C  0.79141959  0.50633304  0.27840124    -0.03400
C1510       C  0.81457642  0.50463978  0.25873812     0.02100
C1511       C  0.77638544  0.50637180  0.18651887     0.09000
N1512       N  0.73012306  0.51268133  0.22725250     0.65300
H1513       H  0.74544096  0.51354814  0.27957669     0.18200
N1514       N  0.84360632  0.50359631  0.26823808     0.75800
H1515       H  0.82727695  0.50325329  0.21442913     0.09700
C1516       C  0.78751540  0.52759752  0.16790800     0.03400
C1517       C  0.78004777  0.52720583  0.13885651    -0.05300
C1518       C  0.76179979  0.50578121  0.12754935    -0.23700
C1519       C  0.75153697  0.48387378  0.14602545     0.12700
C1520       C  0.75884118  0.48445595  0.17515417    -0.12800
N1521       N  0.80566704  0.55028616  0.17820653     0.64400
H1522       H  0.78872733  0.54384726  0.12500814     0.12200
N1523       N  0.73264952  0.46161595  0.13604473     0.61000
H1524       H  0.75042612  0.46779946  0.18912992     0.08400
O1525       O  0.85872805  0.52620638  0.26672425    -0.40500
O1526       O  0.85594873  0.47974541  0.26844135    -0.39600
O1527       O  0.71278480  0.49178302  0.22960441    -0.39600
O1528       O  0.72047057  0.53761176  0.22430744    -0.37400
O1529       O  0.74262045  0.43727732  0.13054578    -0.38300
O1530       O  0.70617442  0.46378715  0.14035755    -0.34400
O1531       O  0.83223099  0.54902921  0.17394253    -0.35800
O1532       O  0.79485940  0.57419545  0.18392874    -0.40100
C1533       C  0.71102880  0.50781642  0.41309824    -0.13800
C1534       C  0.69476208  0.48344652  0.40503333     0.16600
C1535       C  0.70634570  0.46470820  0.38462857     0.02900
C1536       C  0.73252233  0.47140559  0.37153962    -0.12300
C1537       C  0.74784714  0.49679120  0.37793107    -0.03400
C1538       C  0.73735099  0.51460578  0.39981145     0.02100
C1539       C  0.66457005  0.47997790  0.41525901     0.09000
N1540       N  0.69150997  0.43902841  0.37631272     0.65300
H1541       H  0.74043062  0.45708797  0.35523773     0.18200
N1542       N  0.75178237  0.54073685  0.40732266     0.75800
H1543       H  0.70248259  0.52256674  0.42864698     0.09700
C1544       C  0.65770552  0.47673945  0.44456003     0.03400
C1545       C  0.62905106  0.47721704  0.45340724    -0.05300
C1546       C  0.60678688  0.48035277  0.43357692    -0.23700
C1547       C  0.61335533  0.48277551  0.40440334     0.12700
C1548       C  0.64200361  0.48259708  0.39539658    -0.12800
N1549       N  0.67944796  0.47300013  0.46568953     0.64400
H1550       H  0.62421276  0.47610092  0.47605044     0.12200
N1551       N  0.59106277  0.48710628  0.38401156     0.61000
H1552       H  0.64671320  0.48571307  0.37291619     0.08400
O1553       O  0.76692454  0.54146209  0.42971956    -0.40500
O1554       O  0.74304767  0.56396705  0.39684190    -0.39600
O1555       O  0.67723950  0.43890314  0.35335131    -0.39600
O1556       O  0.69928648  0.41546802  0.38683687    -0.37400
O1557       O  0.58075071  0.51179272  0.38131223    -0.38300
O1558       O  0.57707887  0.46565021  0.37479103    -0.34400
O1559       O  0.68576804  0.49361777  0.48211603    -0.35800
O1560       O  0.68564770  0.44786341  0.47324232    -0.40100
C1561       C  0.86801840  0.00877463  0.79823505    -0.13800
C1562       C  0.89066997  0.98962001  0.79885992     0.16600
C1563       C  0.89779480  0.97471718  0.77370021     0.02900
C1564       C  0.88333695  0.98077072  0.74810739    -0.12300
C1565       C  0.86174273  0.00129227  0.74725940    -0.03400
C1566       C  0.85399076  0.01525472  0.77285099     0.02100
C1567       C  0.90743393  0.98830260  0.82568529     0.09000
N1568       N  0.91937011  0.95343598  0.77363011     0.65300
H1569       H  0.88873765  0.96904971  0.72891800     0.18200
N1570       N  0.83324986  0.03740516  0.77341913     0.75800
H1571       H  0.86191150  0.01983974  0.81760255     0.09700
C1572       C  0.91912297  0.01383107  0.83708004     0.03400
C1573       C  0.92985429  0.01426071  0.86470968    -0.05300
C1574       C  0.93019571  0.98949823  0.88201533    -0.23700
C1575       C  0.91945985  0.96342232  0.87015619     0.12700
C1576       C  0.90791357  0.96318427  0.84223442    -0.12800
N1577       N  0.91976537  0.03997505  0.82100521     0.64400
H1578       H  0.93814016  0.03469313  0.87235851     0.12200
N1579       N  0.91986493  0.93709448  0.88576770     0.61000
H1580       H  0.89859805  0.94350878  0.83377625     0.08400
O1581       O  0.80900092  0.03191521  0.78404684    -0.40500
O1582       O  0.84190579  0.06316548  0.77246662    -0.39600
O1583       O  0.91181016  0.92732937  0.77429067    -0.39600
O1584       O  0.94396710  0.96008016  0.76455164    -0.37400
O1585       O  0.89645268  0.92608927  0.89388878    -0.38300
O1586       O  0.94122008  0.92115389  0.88324592    -0.34400
O1587       O  0.90278914  0.05965312  0.82751388    -0.35800
O1588       O  0.94172842  0.04620455  0.80655996    -0.40100
C1589       C  0.90918357  0.98892716  0.15173893    -0.13800
C1590       C  0.92767237  0.98799385  0.17538190     0.16600
C1591       C  0.95719859  0.98477892  0.17052790     0.02900
C1592       C  0.96770093  0.98414265  0.14246402    -0.12300
C1593       C  0.94916267  0.98621692  0.11897700    -0.03400
C1594       C  0.91944358  0.98750094  0.12389836     0.02100
C1595       C  0.91423414  0.98815280  0.20414470     0.09000
N1596       N  0.97705243  0.98295745  0.19353580     0.65300
H1597       H  0.99057427  0.98313392  0.13911546     0.18200
N1598       N  0.89919064  0.98675722  0.10093458     0.75800
H1599       H  0.88632466  0.99059907  0.15490997     0.09700
C1600       C  0.91886147  0.01018790  0.22447286     0.03400
C1601       C  0.90062662  0.01231327  0.24808025    -0.05300
C1602       C  0.87678690  0.99400158  0.25114613    -0.23700
C1603       C  0.87248242  0.97155722  0.23102385     0.12700
C1604       C  0.89185594  0.96834587  0.20868628    -0.12800
N1605       N  0.94029140  0.03198191  0.22065026     0.64400
H1606       H  0.90411288  0.02964569  0.26320073     0.12200
N1607       N  0.84851368  0.95206852  0.23200695     0.61000
H1608       H  0.88799707  0.95134510  0.19325583     0.08400
O1609       O  0.88713421  0.00964181  0.09360395    -0.40500
O1610       O  0.88789770  0.96299425  0.09396664    -0.39600
O1611       O  0.98550836  0.95854527  0.20116365    -0.39600
O1612       O  0.99272554  0.00461900  0.19858389    -0.37400
O1613       O  0.85340949  0.92559973  0.23382872    -0.38300
O1614       O  0.82556327  0.95946644  0.22005819    -0.34400
O1615       O  0.93359069  0.05472443  0.20779190    -0.35800
O1616       O  0.96117768  0.03276067  0.23781044    -0.40100
C1617       C  0.18328170  0.52385664  0.76568661    -0.13800
C1618       C  0.21039989  0.51522441  0.77481378     0.16600
C1619       C  0.22942206  0.50431451  0.75455244     0.02900
C1620       C  0.22175449  0.50373498  0.72568583    -0.25900
C1621       C  0.19558499  0.51476860  0.71576710    -0.03400
C1622       C  0.17542465  0.52299874  0.73667461     0.02100
C1623       C  0.21664262  0.51391909  0.80586696     0.09000
N1624       N  0.25579034  0.49173887  0.76297093     0.65300
H1625       H  0.23636266  0.49342456  0.71129996     0.18200
N1626       N  0.14641401  0.52875416  0.72937504     0.75800
H1627       H  0.16771788  0.53045761  0.78137676     0.09700
C1628       C  0.23829168  0.53086085  0.81898273     0.03400
C1629       C  0.24271508  0.52890301  0.84852981    -0.05300
C1630       C  0.22609713  0.51025214  0.86543394    -0.23700
C1631       C  0.20440650  0.49335238  0.85233122     0.12700
C1632       C  0.19990077  0.49538954  0.82279911    -0.12800
N1633       N  0.25523644  0.55101262  0.80307010     0.64400
H1634       H  0.25926574  0.54217830  0.85836861     0.12200
N1635       N  0.18586230  0.47507110  0.86871311     0.61000
H1636       H  0.18304842  0.48248846  0.81298908     0.08400
O1637       O  0.13733520  0.55383112  0.73273484    -0.40500
O1638       O  0.12861146  0.50811381  0.72887306    -0.39600
O1639       O  0.25594630  0.46535257  0.76897316    -0.39600
O1640       O  0.27895007  0.50405331  0.75595912    -0.37400
O1641       O  0.16165395  0.48410424  0.87589071    -0.38300
O1642       O  0.19009797  0.44842300  0.86884033    -0.34400
O1643       O  0.24756429  0.57680890  0.80225734    -0.35800
O1644       O  0.28114479  0.54552204  0.79859890    -0.40100
C1645       C  0.27980608  0.55212159  0.60501558    -0.13800
C1646       C  0.29095475  0.52904494  0.58984775     0.16600
C1647       C  0.27445372  0.50342977  0.58734789     0.02900
C1648       C  0.24769912  0.50111204  0.60072018    -0.12300
C1649       C  0.23737782  0.52366503  0.61721472    -0.03400
C1650       C  0.25349601  0.54952777  0.61899385     0.02100
C1651       C  0.32129540  0.53069912  0.58073885     0.09000
N1652       N  0.28507371  0.47915165  0.57238738     0.65300
H1653       H  0.23579878  0.48098430  0.59971630     0.18200
N1654       N  0.24434976  0.57272408  0.63646677     0.75800
H1655       H  0.29246369  0.57163512  0.60764471     0.09700
C1656       C  0.33158873  0.55147955  0.56112160     0.03400
C1657       C  0.36049861  0.55191828  0.55337887    -0.05300
C1658       C  0.37935459  0.53173312  0.56444244    -0.23700
C1659       C  0.36954813  0.51249464  0.58580917     0.12700
C1660       C  0.34078751  0.51230382  0.59382610    -0.12800
N1661       N  0.31274323  0.57094695  0.54733207     0.64400
H1662       H  0.36775094  0.56661949  0.53697381     0.12200
N1663       N  0.38839763  0.49292017  0.59954419     0.61000
H1664       H  0.33354759  0.49741112  0.61019856     0.08400
O1665       O  0.25491440  0.57574067  0.66119062    -0.40500
O1666       O  0.23215835  0.59367317  0.62482380    -0.39600
O1667       O  0.29532379  0.45860811  0.58647949    -0.39600
O1668       O  0.27749145  0.47504652  0.54676640    -0.37400
O1669       O  0.38877529  0.46724998  0.59109545    -0.38300
O1670       O  0.39741326  0.49869412  0.62438890    -0.34400
O1671       O  0.31434272  0.59722975  0.55363782    -0.35800
O1672       O  0.30089993  0.56353228  0.52413426    -0.40100
C1673       C  0.80002837  0.51146248  0.76041296    -0.13800
C1674       C  0.77163167  0.51253625  0.76965614     0.16600
C1675       C  0.74962463  0.51101103  0.74914216     0.02900
C1676       C  0.75622555  0.50984619  0.71999621    -0.12300
C1677       C  0.78475007  0.51004896  0.71014979    -0.03400
C1678       C  0.80675330  0.50945170  0.73122833     0.02100
C1679       C  0.76541054  0.51388818  0.80079465     0.09000
N1680       N  0.72033794  0.50872151  0.75750519     0.65300
H1681       H  0.73833758  0.50761885  0.70561718     0.18200
N1682       N  0.83600441  0.50556110  0.72366202     0.75800
H1683       H  0.81718740  0.51169535  0.77605464     0.09700
C1684       C  0.77282309  0.49118857  0.81913415     0.03400
C1685       C  0.76674951  0.49269531  0.84824118    -0.05300
C1686       C  0.75379017  0.51679068  0.86014511    -0.23700
C1687       C  0.74722445  0.54015643  0.84207095     0.12700
C1688       C  0.75274782  0.53836590  0.81253265    -0.12800
N1689       N  0.78654913  0.46623378  0.80864222     0.64400
H1690       H  0.77282355  0.47485056  0.86172235     0.12200
N1691       N  0.73495512  0.56565466  0.85330311     0.61000
H1692       H  0.74743617  0.55622651  0.79875236     0.08400
O1693       O  0.84574689  0.48049293  0.72396405    -0.40500
O1694       O  0.85327676  0.52655549  0.72560535    -0.39600
O1695       O  0.70453386  0.53018166  0.75454001    -0.39600
O1696       O  0.70891604  0.48410033  0.75966146    -0.37400
O1697       O  0.75105296  0.58642916  0.86052221    -0.38300
O1698       O  0.70901033  0.56551722  0.86059518    -0.34400
O1699       O  0.81315598  0.46400602  0.81227117    -0.35800
O1700       O  0.77166768  0.44385794  0.80418332    -0.40100
C1701       C  0.71095776  0.54888595  0.58940070    -0.13800
C1702       C  0.70102224  0.52503022  0.57391549     0.16600
C1703       C  0.71748208  0.50002363  0.57335158     0.02900
C1704       C  0.74233210  0.49860204  0.58998445    -0.12300
C1705       C  0.75141999  0.52172917  0.60688381    -0.03400
C1706       C  0.73594437  0.54744479  0.60588329     0.02100
C1707       C  0.67191832  0.52570525  0.56166424     0.09000
N1708       N  0.70886535  0.47559294  0.55680888     0.65300
H1709       H  0.75333697  0.47863043  0.59131767     0.18200
N1710       N  0.74448262  0.57179688  0.62253609     0.75800
H1711       H  0.69847260  0.56824660  0.58983787     0.09700
C1712       C  0.64865997  0.51457594  0.57729202     0.03400
C1713       C  0.62105260  0.51672348  0.56642012    -0.05300
C1714       C  0.61550433  0.53006613  0.53995319    -0.23700
C1715       C  0.63893355  0.54249613  0.52485533     0.12700
C1716       C  0.66684419  0.54004470  0.53581035    -0.12800
N1717       N  0.65249845  0.50191590  0.60488650     0.64400
H1718       H  0.60384034  0.50755776  0.57909957     0.12200
N1719       N  0.63501591  0.55814628  0.49887164     0.61000
H1720       H  0.68461847  0.54966753  0.52424678     0.08400
O1721       O  0.75907970  0.59154438  0.61085171    -0.40500
O1722       O  0.73130216  0.57705335  0.64538906    -0.39600
O1723       O  0.72171262  0.47062030  0.53370217    -0.39600
O1724       O  0.69495276  0.45549457  0.56870334    -0.37400
O1725       O  0.63165615  0.58491179  0.50013365    -0.38300
O1726       O  0.64270207  0.54714425  0.47554528    -0.34400
O1727       O  0.64719821  0.51661837  0.62681697    -0.35800
O1728       O  0.65278916  0.47495316  0.60703977    -0.40100
C1729       C  0.00814582  0.27724482  0.31796872    -0.13800
C1730       C  0.98950336  0.29945913  0.31085432     0.16600
C1731       C  0.97150702  0.31054235  0.33206313     0.02900
C1732       C  0.97220265  0.29919574  0.35969107    -0.12300
C1733       C  0.99110408  0.27731289  0.36703150    -0.03400
C1734       C  0.00944140  0.26640951  0.34592681     0.02100
C1735       C  0.98770017  0.30920848  0.28076568     0.09000
N1736       N  0.95356588  0.33437880  0.32636893     0.65300
H1737       H  0.95865820  0.30847007  0.37588192     0.18200
N1738       N  0.02903802  0.24409067  0.35226356     0.75800
H1739       H  0.02162605  0.26811363  0.30165878     0.09700
C1740       C  0.01156789  0.32083831  0.26644523     0.03400
C1741       C  0.01010033  0.32646785  0.23713681    -0.05300
C1742       C  0.98502685  0.32081391  0.22107998    -0.23700
C1743       C  0.96079417  0.30957199  0.23599364     0.12700
C1744       C  0.96237965  0.30419081  0.26545463    -0.12800
N1745       N  0.03784913  0.32655538  0.28118717     0.64400
H1746       H  0.02967742  0.33367070  0.22725691     0.12200
N1747       N  0.93479779  0.30190880  0.22150094     0.61000
H1748       H  0.94402077  0.29470318  0.27620408     0.08400
O1749       O  0.02263480  0.21864150  0.34529356    -0.40500
O1750       O  0.05481822  0.25062613  0.35744931    -0.39600
O1751       O  0.92688353  0.33034285  0.32464052    -0.39600
O1752       O  0.96324940  0.35940144  0.33085154    -0.37400
O1753       O  0.91396389  0.31865881  0.22299553    -0.38300
O1754       O  0.92999657  0.27591655  0.21535853    -0.34400
O1755       O  0.05804707  0.30916203  0.27867755    -0.35800
O1756       O  0.04341022  0.35184038  0.28928818    -0.40100
C1757       C  0.97255390  0.30020977  0.67376098    -0.13800
C1758       C  0.99348454  0.28814129  0.69117519     0.16600
C1759       C  0.01247484  0.26821479  0.67957830     0.02900
C1760       C  0.01120913  0.26182510  0.65039552    -0.12300
C1761       C  0.99065747  0.27435256  0.63271233    -0.03400
C1762       C  0.97077057  0.29333285  0.64477002     0.02100
C1763       C  0.99379739  0.29557076  0.72170487     0.09000
N1764       N  0.03225847  0.25336510  0.69729911     0.65300
H1765       H  0.02609559  0.24670820  0.64158510     0.18200
N1766       N  0.94999386  0.30749814  0.62764272     0.75800
H1767       H  0.95762912  0.31526292  0.68272563     0.09700
C1768       C  0.01335064  0.31575376  0.73302781     0.03400
C1769       C  0.01219510  0.32292544  0.76201814    -0.05300
C1770       C  0.99145341  0.31052087  0.78027573    -0.23700
C1771       C  0.97100340  0.29109580  0.76808034     0.12700
C1772       C  0.97256217  0.28379465  0.73919190    -0.12800
N1773       N  0.03387458  0.33000745  0.71518235     0.64400
H1774       H  0.02773068  0.33844972  0.76952433     0.12200
N1775       N  0.94838099  0.27845174  0.78459956     0.61000
H1776       H  0.95688405  0.26889989  0.73025296     0.08400
O1777       O  0.95544622  0.33270232  0.61928536    -0.40500
O1778       O  0.92431583  0.29879248  0.62833359    -0.39600
O1779       O  0.02594949  0.22828857  0.70560177    -0.39600
O1780       O  0.05802698  0.26173429  0.69798346    -0.37400
O1781       O  0.95017093  0.25251426  0.79202635    -0.38300
O1782       O  0.92406003  0.28972698  0.78386563    -0.34400
O1783       O  0.02785230  0.35404092  0.70450381    -0.35800
O1784       O  0.05968646  0.32272965  0.71651669    -0.40100
C1785       C  0.88312174  0.36985391  0.40120448    -0.13800
C1786       C  0.88959376  0.39854112  0.40764406     0.16600
C1787       C  0.91064366  0.40488937  0.42830498     0.02900
C1788       C  0.92542434  0.38265743  0.44156474    -0.12300
C1789       C  0.91952288  0.35366245  0.43498198    -0.03400
C1790       C  0.89759989  0.34742601  0.41466953     0.02100
C1791       C  0.87244186  0.42127055  0.39417336     0.09000
N1792       N  0.91694376  0.43379389  0.43653469     0.65300
H1793       H  0.94158998  0.38837398  0.45729743     0.18200
N1794       N  0.88927822  0.31865840  0.40759851     0.75800
H1795       H  0.86639254  0.36481738  0.38580992     0.09700
C1796       C  0.88060933  0.43432707  0.36819737     0.03400
C1797       C  0.86251742  0.45401687  0.35501477    -0.05300
C1798       C  0.83606507  0.46086198  0.36710419    -0.23700
C1799       C  0.82793198  0.44768661  0.39316522     0.12700
C1800       C  0.84617506  0.42813630  0.40641534    -0.12800
N1801       N  0.90678923  0.42727662  0.35449260     0.64400
H1802       H  0.86922383  0.46401919  0.33513654     0.12200
N1803       N  0.80045610  0.45212316  0.40543659     0.61000
H1804       H  0.83942168  0.41758430  0.42600322     0.08400
O1805       O  0.89966009  0.30719031  0.38561960    -0.40500
O1806       O  0.86674705  0.30806503  0.41835208    -0.39600
O1807       O  0.90621859  0.44337818  0.45925408    -0.39600
O1808       O  0.93842526  0.44649593  0.42587678    -0.37400
O1809       O  0.78033130  0.43480877  0.39935028    -0.38300
O1810       O  0.79864369  0.46715490  0.42776211    -0.34400
O1811       O  0.90603618  0.41128280  0.33273823    -0.35800
O1812       O  0.92875501  0.44267054  0.35911517    -0.40100
C1813       C  0.84460458  0.42604008  0.59029585    -0.13800
C1814       C  0.86886313  0.41816097  0.60595815     0.16600
C1815       C  0.87538231  0.43346419  0.63141263     0.02900
C1816       C  0.85672561  0.45443658  0.64134165    -0.12300
C1817       C  0.83177665  0.46134989  0.62624652    -0.03400
C1818       C  0.82617032  0.44725041  0.60006793     0.02100
C1819       C  0.88744129  0.39511906  0.59431927     0.09000
N1820       N  0.90069042  0.42818322  0.64765278     0.65300
H1821       H  0.86201779  0.46571192  0.66098108     0.18200
N1822       N  0.80110067  0.45270872  0.58372083     0.75800
H1823       H  0.83993277  0.41580846  0.57000238     0.09700
C1824       C  0.87622047  0.36805338  0.58557444     0.03400
C1825       C  0.89406100  0.34796703  0.57276191    -0.05300
C1826       C  0.92303436  0.35405060  0.56767279    -0.23700
C1827       C  0.93432930  0.38097073  0.57662160     0.12700
C1828       C  0.91654419  0.40105374  0.58962880    -0.12800
N1829       N  0.84669311  0.36049999  0.58907881     0.64400
H1830       H  0.88490105  0.32762202  0.56599870     0.12200
N1831       N  0.96397250  0.38809549  0.57371772     0.61000
H1832       H  0.92553059  0.42181065  0.59533337     0.08400
O1833       O  0.80329787  0.46818756  0.56163139    -0.40500
O1834       O  0.78048775  0.43498209  0.58544714    -0.39600
O1835       O  0.92171547  0.44531238  0.64507046    -0.39600
O1836       O  0.89869346  0.41321736  0.67009055    -0.37400
O1837       O  0.97155186  0.40569516  0.55454645    -0.38300
O1838       O  0.98031416  0.38421862  0.59486053    -0.34400
O1839       O  0.83033869  0.36160071  0.56757520    -0.35800
O1840       O  0.83952535  0.34471729  0.60988970    -0.40100
C1841       C  0.11107523  0.45548341  0.59342496    -0.13800
C1842       C  0.11175464  0.42709520  0.60335101     0.16600
C1843       C  0.13088709  0.42045559  0.62580821     0.02900
C1844       C  0.14883969  0.44172335  0.63739135    -0.12300
C1845       C  0.14799412  0.47024508  0.62794178    -0.03400
C1846       C  0.12850417  0.47710679  0.60561616     0.02100
C1847       C  0.09445324  0.40423131  0.58860861     0.09000
N1848       N  0.13213286  0.39225161  0.63768009     0.65300
H1849       H  0.16359494  0.43568851  0.65417968     0.18200
N1850       N  0.12480909  0.50582799  0.59572041     0.75800
H1851       H  0.09713463  0.46099957  0.57578855     0.09700
C1852       C  0.06489337  0.40677198  0.58266344     0.03400
C1853       C  0.05000886  0.38431776  0.56899016    -0.05300
C1854       C  0.06359713  0.35886204  0.56143291    -0.23700
C1855       C  0.09329354  0.35677793  0.56632687     0.12700
C1856       C  0.10832936  0.37947137  0.57934583    -0.12800
N1857       N  0.04928667  0.43148028  0.59091793     0.64400
H1858       H  0.02741938  0.38662319  0.56478596     0.12200
N1859       N  0.10889898  0.33239567  0.55719013     0.61000
H1860       H  0.13123499  0.37775719  0.58197682     0.08400
O1861       O  0.13551242  0.51303296  0.57196509    -0.40500
O1862       O  0.10377565  0.51960478  0.60491647    -0.39600
O1863       O  0.15417771  0.37761072  0.63359038    -0.39600
O1864       O  0.11579860  0.38571692  0.65818146    -0.37400
O1865       O  0.12241088  0.33373564  0.53389300    -0.38300
O1866       O  0.11568588  0.31372864  0.57545105    -0.34400
O1867       O  0.04156142  0.44888128  0.57179069    -0.35800
O1868       O  0.03613892  0.43103022  0.61443866    -0.40100
C1869       C  0.08446696  0.40556643  0.43521081    -0.13800
C1870       C  0.08902414  0.40275153  0.40572396     0.16600
C1871       C  0.07781301  0.37836659  0.39140128     0.02900
C1872       C  0.06294532  0.35719356  0.40674720    -0.12300
C1873       C  0.05852342  0.35994078  0.43620735    -0.03400
C1874       C  0.06914637  0.38460700  0.45050313     0.02100
C1875       C  0.10797315  0.42391191  0.39114656     0.09000
N1876       N  0.08063690  0.37502798  0.36118126     0.65300
H1877       H  0.05440693  0.33863468  0.39543155     0.18200
N1878       N  0.06614360  0.38797103  0.48072990     0.75800
H1879       H  0.09373253  0.42366139  0.44667120     0.09700
C1880       C  0.10255611  0.45359698  0.39163442     0.03400
C1881       C  0.12201009  0.47292056  0.37920789    -0.05300
C1882       C  0.14689439  0.46333009  0.36607562    -0.23700
C1883       C  0.15275533  0.43370432  0.36612241     0.12700
C1884       C  0.13329576  0.41436019  0.37866315    -0.12800
N1885       N  0.07698303  0.46449558  0.40377271     0.64400
H1886       H  0.11721775  0.49559013  0.37914817     0.12200
N1887       N  0.17878195  0.42292271  0.35479618     0.61000
H1888       H  0.13830955  0.39176001  0.37920416     0.08400
O1889       O  0.04879256  0.40608205  0.49011519    -0.40500
O1890       O  0.08569226  0.37915516  0.49701779    -0.39600
O1891       O  0.09755497  0.35654192  0.35172943    -0.39600
O1892       O  0.06086775  0.38379171  0.34513642    -0.37400
O1893       O  0.19878982  0.41707803  0.37190560    -0.38300
O1894       O  0.17831106  0.41111706  0.33052626    -0.34400
O1895       O  0.07811901  0.47598059  0.42818942    -0.35800
O1896       O  0.05632156  0.47010992  0.38739253    -0.40100
C1897       C  0.09084813  0.09551158  0.64134689    -0.13800
C1898       C  0.10303209  0.10029196  0.61436705     0.16600
C1899       C  0.12777012  0.08536210  0.60667320     0.02900
C1900       C  0.13948023  0.06565500  0.62580117    -0.12300
C1901       C  0.12724547  0.06082613  0.65277925    -0.03400
C1902       C  0.10286041  0.07623768  0.66068159     0.02100
C1903       C  0.09102865  0.12325150  0.59640290     0.09000
N1904       N  0.14232106  0.09112481  0.58043162     0.65300
H1905       H  0.15826647  0.05400334  0.61946435     0.18200
N1906       N  0.09160162  0.07467603  0.68902456     0.75800
H1907       H  0.07242032  0.10766046  0.64782924     0.09700
C1908       C  0.07451636  0.11733497  0.57183696     0.03400
C1909       C  0.06056362  0.13962350  0.55779910    -0.05300
C1910       C  0.06212224  0.16801736  0.56797673    -0.23700
C1911       C  0.07872283  0.17374035  0.59287071     0.12700
C1912       C  0.09311395  0.15145675  0.60648342    -0.12800
N1913       N  0.06994274  0.08865389  0.56194218     0.64400
H1914       H  0.04772050  0.13431437  0.53917859     0.12200
N1915       N  0.07992025  0.20143958  0.60588233     0.61000
H1916       H  0.10515233  0.15602420  0.62587048     0.08400
O1917       O  0.06812060  0.06165979  0.69321730    -0.40500
O1918       O  0.10041294  0.09266494  0.70731799    -0.39600
O1919       O  0.16339141  0.10838177  0.58067479    -0.39600
O1920       O  0.14010560  0.07319441  0.56032861    -0.37400
O1921       O  0.06320003  0.20658426  0.62629235    -0.38300
O1922       O  0.10219914  0.21678400  0.60296816    -0.34400
O1923       O  0.04709002  0.07562735  0.56872352    -0.35800
O1924       O  0.08360299  0.08023109  0.54040213    -0.40100
C1925       C  0.87710952  0.10539901  0.64922108    -0.13800
C1926       C  0.88839986  0.09733071  0.62268274     0.16600
C1927       C  0.88731594  0.06803849  0.61498882     0.02900
C1928       C  0.87473050  0.04776618  0.63334033    -0.12300
C1929       C  0.86341228  0.05570207  0.65974380    -0.03400
C1930       C  0.86442333  0.08501235  0.66761534     0.02100
C1931       C  0.90257396  0.11935079  0.60408091     0.09000
N1932       N  0.89760191  0.05855900  0.58794870     0.65300
H1933       H  0.87237374  0.02586231  0.62606602     0.18200
N1934       N  0.85233326  0.09463766  0.69386172     0.75800
H1935       H  0.87819000  0.12767222  0.65577028     0.09700
C1936       C  0.88865079  0.14453101  0.59515680     0.03400
C1937       C  0.90338444  0.16516544  0.57883115    -0.05300
C1938       C  0.93186789  0.16133053  0.57061184    -0.23700
C1939       C  0.94577789  0.13601282  0.57933189     0.12700
C1940       C  0.93114721  0.11559524  0.59609965    -0.12800
N1941       N  0.85927150  0.14921072  0.60153870     0.64400
H1942       H  0.89216212  0.18416548  0.57203080     0.12200
N1943       N  0.97501086  0.13102519  0.57245942     0.61000
H1944       H  0.94245008  0.09685457  0.60341205     0.08400
O1945       O  0.82752241  0.10481946  0.69347019    -0.40500
O1946       O  0.86884346  0.10101837  0.71438468    -0.39600
O1947       O  0.92063267  0.04491019  0.58705557    -0.39600
O1948       O  0.88035794  0.05662493  0.56719772    -0.37400
O1949       O  0.99417689  0.13855254  0.59011139    -0.38300
O1950       O  0.98067187  0.11232224  0.55393254    -0.34400
O1951       O  0.85310204  0.16805163  0.61974842    -0.35800
O1952       O  0.84054443  0.14146377  0.58351609    -0.40100
C1953       C  0.90319984  0.07162359  0.37193669    -0.13800
C1954       C  0.89128100  0.09898957  0.37141001     0.16600
C1955       C  0.86985591  0.10456265  0.35086564     0.02900
C1956       C  0.86014612  0.08273368  0.33251657    -0.12300
C1957       C  0.87057900  0.05463344  0.33420410    -0.03400
C1958       C  0.89331945  0.04955754  0.35375251     0.02100
C1959       C  0.90341470  0.12182287  0.39062129     0.09000
N1960       N  0.85675332  0.13193899  0.34888125     0.65300
H1961       H  0.84362848  0.08787952  0.31713730     0.18200
N1962       N  0.90679815  0.02242889  0.35609737     0.75800
H1963       H  0.92070860  0.06732724  0.38647293     0.09700
C1964       C  0.90607882  0.11799786  0.42059762     0.03400
C1965       C  0.91998638  0.13901466  0.43739409    -0.05300
C1966       C  0.93114502  0.16425673  0.42510125    -0.23700
C1967       C  0.92852518  0.16803943  0.39514599     0.12700
C1968       C  0.91489766  0.14693288  0.37836001    -0.12800
N1969       N  0.89409388  0.09332770  0.43455372     0.64400
H1970       H  0.92151899  0.13582349  0.46032304     0.12200
N1971       N  0.94111673  0.19234299  0.38106816     0.61000
H1972       H  0.91414373  0.14982457  0.35536823     0.08400
O1973       O  0.92950882  0.01865036  0.34221396    -0.40500
O1974       O  0.90270387  0.00785652  0.37851149    -0.39600
O1975       O  0.86283033  0.14796089  0.32790271    -0.39600
O1976       O  0.83369856  0.13584811  0.36212324    -0.37400
O1977       O  0.96565717  0.19013926  0.37027216    -0.38300
O1978       O  0.92529880  0.21244898  0.37293614    -0.34400
O1979       O  0.91052969  0.07394440  0.44320500    -0.35800
O1980       O  0.86937716  0.09481359  0.44509217    -0.40100
C1981       C  0.07539466  0.11809865  0.42077593    -0.13800
C1982       C  0.09098186  0.12735686  0.39692423     0.16600
C1983       C  0.09158769  0.15677157  0.38996610     0.02900
C1984       C  0.07649871  0.17624314  0.40673129    -0.12300
C1985       C  0.06062610  0.16714532  0.43075294    -0.03400
C1986       C  0.06040046  0.13746520  0.43771513     0.02100
C1987       C  0.10456639  0.10550640  0.37864265     0.09000
N1988       N  0.10805276  0.16741397  0.36644006     0.65300
H1989       H  0.07732342  0.19869833  0.40074597     0.18200
N1990       N  0.04563003  0.12638672  0.46213614     0.75800
H1991       H  0.07459457  0.09547296  0.42615477     0.09700
C1992       C  0.12760075  0.08915855  0.38857591     0.03400
C1993       C  0.13839873  0.06717407  0.37163520    -0.05300
C1994       C  0.12678755  0.06083269  0.34455339    -0.23700
C1995       C  0.10303166  0.07682882  0.33493732     0.12700
C1996       C  0.09240816  0.09899726  0.35196206    -0.12800
N1997       N  0.14075867  0.09497064  0.41560476     0.64400
H1998       H  0.15612877  0.05496090  0.37985968     0.12200
N1999       N  0.08978925  0.07180297  0.30776319     0.61000
H2000       H  0.07423833  0.11102618  0.34441683     0.08400
O2001       O  0.05967059  0.12144461  0.48465305    -0.40500
O2002       O  0.02147591  0.11438440  0.45875115    -0.39600
O2003       O  0.09532625  0.17636769  0.34440204    -0.39600
O2004       O  0.13375984  0.17491013  0.37068280    -0.37400
O2005       O  0.06669891  0.05742458  0.30686625    -0.38300
O2006       O  0.09531010  0.08893038  0.28754698    -0.34400
O2007       O  0.13490498  0.07890049  0.43660090    -0.35800
O2008       O  0.16319786  0.11035423  0.41638318    -0.40100
C2009       C  0.01429085  0.74571696  0.31452845    -0.13800
C2010       C  0.98847852  0.73640204  0.30227792     0.16600
C2011       C  0.96389155  0.73450657  0.31950251     0.02900
C2012       C  0.96549027  0.74209011  0.34849588    -0.12300
C2013       C  0.99142358  0.75124810  0.36117731    -0.03400
C2014       C  0.01615071  0.75293439  0.34358395     0.02100
C2015       C  0.98810611  0.72889713  0.27146355     0.09000
N2016       N  0.93724071  0.72429664  0.30815833     0.65300
H2017       H  0.94628902  0.74006826  0.36125768     0.18200
N2018       N  0.04343934  0.76184076  0.35453127     0.75800
H2019       H  0.03332040  0.74718248  0.30140250     0.09700
C2020       C  0.98358498  0.74990173  0.25050721     0.03400
C2021       C  0.98566278  0.74299377  0.22154972    -0.05300
C2022       C  0.99379146  0.71551687  0.21226098    -0.23700
C2023       C  0.99746846  0.69408152  0.23369620     0.12700
C2024       C  0.99483911  0.70108456  0.26284611    -0.12800
N2025       N  0.97745070  0.77875835  0.25820603     0.64400
H2026       H  0.98005492  0.75965898  0.20669856     0.12200
N2027       N  0.00361490  0.66502406  0.22658541     0.61000
H2028       H  0.99838444  0.68471745  0.27890755     0.08400
O2029       O  0.05257879  0.78685428  0.34903373    -0.40500
O2030       O  0.06101949  0.74298604  0.36199509    -0.39600
O2031       O  0.92978574  0.69852967  0.31254062    -0.39600
O2032       O  0.91846852  0.74220091  0.30137050    -0.37400
O2033       O  0.02870876  0.65617794  0.23028002    -0.38300
O2034       O  0.98328259  0.64691511  0.22567925    -0.34400
O2035       O  0.99738374  0.79732562  0.25761361    -0.35800
O2036       O  0.95188736  0.78689729  0.25748589    -0.40100
C2037       C  0.97420283  0.72335603  0.73242828    -0.13800
C2038       C  0.99682719  0.71394625  0.71560659     0.16600
C2039       C  0.02020251  0.70079996  0.72891482     0.02900
C2040       C  0.02082331  0.69758764  0.75855654    -0.12300
C2041       C  0.99846337  0.70730503  0.77596519    -0.03400
C2042       C  0.97489115  0.72060320  0.76226275     0.02100
C2043       C  0.99779003  0.72231313  0.68512982     0.09000
N2044       N  0.04417585  0.69143747  0.71277864     0.65300
H2045       H  0.03996596  0.68862645  0.76735583     0.18200
N2046       N  0.95219990  0.73303547  0.77820183     0.75800
H2047       H  0.95659857  0.73448845  0.72248423     0.09700
C2048       C  0.97656411  0.71347256  0.66542753     0.03400
C2049       C  0.97732826  0.72398076  0.63745313    -0.05300
C2050       C  0.99870005  0.74358886  0.62860535    -0.23700
C2051       C  0.01985020  0.75250134  0.64840093     0.12700
C2052       C  0.01914435  0.74185806  0.67637279    -0.12800
N2053       N  0.95413864  0.69384698  0.67331525     0.64400
H2054       H  0.96117826  0.71641219  0.62243272     0.12200
N2055       N  0.04110849  0.77358742  0.64113927     0.61000
H2056       H  0.03484253  0.74973494  0.69168582     0.08400
O2057       O  0.95315395  0.75964634  0.78310587    -0.40500
O2058       O  0.92832023  0.72007429  0.77909453    -0.39600
O2059       O  0.06657642  0.70689942  0.71239856    -0.39600
O2060       O  0.04592722  0.66517459  0.70671382    -0.37400
O2061       O  0.03564366  0.79974007  0.64471695    -0.38300
O2062       O  0.06682126  0.76616300  0.63909833    -0.34400
O2063       O  0.92951997  0.70341993  0.67792129    -0.35800
O2064       O  0.95672087  0.66759114  0.66757330    -0.40100
C2065       C  0.07247262  0.61914263  0.41142668    -0.13800
C2066       C  0.09899181  0.62847621  0.40074316     0.16600
C2067       C  0.10687559  0.65766533  0.40316269     0.02900
C2068       C  0.08840747  0.67669385  0.41653324    -0.12300
C2069       C  0.06202515  0.66735828  0.42800007    -0.03400
C2070       C  0.05406831  0.63807290  0.42507948     0.02100
C2071       C  0.11704517  0.60714053  0.38632133     0.09000
N2072       N  0.13329069  0.66859597  0.39200240     0.65300
H2073       H  0.09518767  0.69896204  0.41832067     0.18200
N2074       N  0.02752411  0.62696564  0.43572348     0.75800
H2075       H  0.06607921  0.59677932  0.40933765     0.09700
C2076       C  0.14174284  0.59606667  0.39935708     0.03400
C2077       C  0.15587902  0.57311540  0.38669424    -0.05300
C2078       C  0.14579191  0.56063968  0.36122974    -0.23700
C2079       C  0.12073029  0.57151762  0.34841553     0.12700
C2080       C  0.10688934  0.59472590  0.36088717    -0.12800
N2081       N  0.15190798  0.60672845  0.42621873     0.64400
H2082       H  0.17480077  0.56489920  0.39702724     0.12200
N2083       N  0.10760383  0.55790391  0.32421114     0.61000
H2084       H  0.08732096  0.60238251  0.35126634     0.08400
O2085       O  0.02727559  0.61402135  0.45945504    -0.40500
O2086       O  0.00698061  0.62298663  0.41852782    -0.39600
O2087       O  0.13336270  0.68009279  0.36754157    -0.39600
O2088       O  0.15316079  0.67500297  0.40928906    -0.37400
O2089       O  0.08886946  0.53857093  0.32839886    -0.38300
O2090       O  0.10841296  0.57041893  0.30025795    -0.34400
O2091       O  0.14320221  0.59483227  0.44891195    -0.35800
O2092       O  0.17474092  0.62150513  0.42690331    -0.40100
C2093       C  0.09685338  0.64893748  0.59502382    -0.13800
C2094       C  0.10080920  0.62314315  0.58033999     0.16600
C2095       C  0.08612605  0.61825216  0.55436022     0.02900
C2096       C  0.06878028  0.63966906  0.54309903    -0.12300
C2097       C  0.06491124  0.66558566  0.55775567    -0.03400
C2098       C  0.07863129  0.66978911  0.58444522     0.02100
C2099       C  0.11777596  0.60107441  0.59489140     0.09000
N2100       N  0.08692084  0.59123507  0.54004642     0.65300
H2101       H  0.05808671  0.63583086  0.52281532     0.18200
N2102       N  0.07283524  0.69399668  0.60210473     0.75800
H2103       H  0.10721140  0.65244826  0.61555477     0.09700
C2104       C  0.14437012  0.59189420  0.58457596     0.03400
C2105       C  0.16120110  0.57423383  0.60163638    -0.05300
C2106       C  0.15195331  0.56519193  0.62874281    -0.23700
C2107       C  0.12535599  0.57441194  0.63901158     0.12700
C2108       C  0.10861619  0.59212127  0.62203509    -0.12800
N2109       N  0.15509104  0.60067753  0.55731303     0.64400
H2110       H  0.18169084  0.56750268  0.59352946     0.12200
N2111       N  0.11439780  0.56532832  0.66607502     0.61000
H2112       H  0.08828566  0.59922523  0.63024742     0.08400
O2113       O  0.09192022  0.71317541  0.60533582    -0.40500
O2114       O  0.05288153  0.69205876  0.62014515    -0.39600
O2115       O  0.06809673  0.57249953  0.54605771    -0.39600
O2116       O  0.09937399  0.58982777  0.51620556    -0.37400
O2117       O  0.09867575  0.54310464  0.66728866    -0.38300
O2118       O  0.11353161  0.58328939  0.68620044    -0.34400
O2119       O  0.17351217  0.62073105  0.55634034    -0.35800
O2120       O  0.15389429  0.58297256  0.53694031    -0.40100
C2121       C  0.88010448  0.57291920  0.59975819    -0.13800
C2122       C  0.87635003  0.60153888  0.60784916     0.16600
C2123       C  0.85416758  0.60808225  0.62711669     0.02900
C2124       C  0.83629888  0.58615176  0.63754556    -0.12300
C2125       C  0.84010632  0.55751392  0.62945431    -0.03400
C2126       C  0.86242902  0.55094258  0.61047370     0.02100
C2127       C  0.89342935  0.62429256  0.59324037     0.09000
N2128       N  0.84960887  0.63677165  0.63662318     0.65300
H2129       H  0.81914105  0.59163894  0.65195029     0.18200
N2130       N  0.86841338  0.52204877  0.60278719     0.75800
H2131       H  0.89650793  0.56757120  0.58447790     0.09700
C2132       C  0.92360750  0.62371100  0.59161965     0.03400
C2133       C  0.93831150  0.64420447  0.57511746    -0.05300
C2134       C  0.92364542  0.66593928  0.56083079    -0.23700
C2135       C  0.89358264  0.66669812  0.56267971     0.12700
C2136       C  0.87883810  0.64563877  0.57827392    -0.12800
N2137       N  0.93979948  0.60334880  0.60747257     0.64400
H2138       H  0.96145109  0.64370916  0.57426360     0.12200
N2139       N  0.87752143  0.68820383  0.54833250     0.61000
H2140       H  0.85569910  0.64569543  0.57816960     0.08400
O2141       O  0.88737348  0.50893730  0.61660985    -0.40500
O2142       O  0.86149584  0.51323197  0.57816171    -0.39600
O2143       O  0.82891470  0.65051923  0.62641818    -0.39600
O2144       O  0.86049645  0.64478637  0.66008377    -0.37400
O2145       O  0.86684416  0.68261228  0.52410045    -0.38300
O2146       O  0.86724802  0.70829867  0.56288294    -0.34400
O2147       O  0.95057841  0.58249240  0.59443951    -0.35800
O2148       O  0.95012543  0.61070772  0.63139048    -0.40100
C2149       C  0.87727999  0.65002495  0.40414049    -0.13800
C2150       C  0.88213125  0.62129600  0.41090719     0.16600
C2151       C  0.90510286  0.61469286  0.42929000     0.02900
C2152       C  0.92240975  0.63677180  0.44068560    -0.12300
C2153       C  0.91765386  0.66581223  0.43405795    -0.03400
C2154       C  0.89461643  0.67216179  0.41530092     0.02100
C2155       C  0.86484734  0.59865179  0.39616809     0.09000
N2156       N  0.91103819  0.58569748  0.43691826     0.65300
H2157       H  0.93970351  0.63093470  0.45490619     0.18200
N2158       N  0.88855803  0.70081753  0.40671324     0.75800
H2159       H  0.86029565  0.65534848  0.38932875     0.09700
C2160       C  0.83482153  0.59634405  0.39911772     0.03400
C2161       C  0.81948427  0.57513895  0.38405619    -0.05300
C2162       C  0.83321503  0.55674721  0.36519635    -0.23700
C2163       C  0.86292118  0.56005812  0.36095723     0.12700
C2164       C  0.87849057  0.58055894  0.37676187    -0.12800
N2165       N  0.81947213  0.61525474  0.41724032     0.64400
H2166       H  0.79661266  0.57335918  0.38673744     0.12200
N2167       N  0.87760320  0.54302964  0.34054978     0.61000
H2168       H  0.90131049  0.58284942  0.37332908     0.08400
O2169       O  0.86823044  0.71361902  0.41854480    -0.40500
O2170       O  0.89752867  0.70968238  0.38279766    -0.39600
O2171       O  0.93205465  0.57352457  0.42561515    -0.39600
O2172       O  0.90061803  0.57549399  0.45970241    -0.37400
O2173       O  0.88327638  0.55367473  0.31634870    -0.38300
O2174       O  0.89134035  0.52159596  0.34910766    -0.34400
O2175       O  0.80703255  0.63636443  0.40613498    -0.35800
O2176       O  0.81140666  0.60634950  0.44145212    -0.40100
C2177       C  0.10804289  0.91463483  0.34471879    -0.13800
C2178       C  0.08786434  0.92317771  0.36497591     0.16600
C2179       C  0.08254053  0.95287181  0.36773992     0.02900
C2180       C  0.09768722  0.97300192  0.35097949    -0.12300
C2181       C  0.11826482  0.96448310  0.33109550    -0.03400
C2182       C  0.12287952  0.93467901  0.32766068     0.02100
C2183       C  0.07481575  0.90107458  0.38453975     0.09000
N2184       N  0.06180737  0.96315061  0.38742756     0.65300
H2185       H  0.09388039  0.99560288  0.35429980     0.18200
N2186       N  0.14191927  0.92405961  0.30648349     0.75800
H2187       H  0.11302424  0.89216262  0.34253539     0.09700
C2188       C  0.06308783  0.87474558  0.37436516     0.03400
C2189       C  0.05362060  0.85372925  0.39373237    -0.05300
C2190       C  0.05444849  0.85842929  0.42332592    -0.23700
C2191       C  0.06565907  0.88476234  0.43360534     0.12700
C2192       C  0.07629828  0.90535624  0.41429693    -0.12800
N2193       N  0.05936315  0.86924909  0.34450225     0.64400
H2194       H  0.04442184  0.83392356  0.38542571     0.12200
N2195       N  0.06720035  0.89073815  0.46354800     0.61000
H2196       H  0.08634304  0.92461394  0.42279128     0.08400
O2197       O  0.16538135  0.91366597  0.31443999    -0.40500
O2198       O  0.13169652  0.91664022  0.28253962    -0.39600
O2199       O  0.07021708  0.97546449  0.41004796    -0.39600
O2200       O  0.03668109  0.96724663  0.37863970    -0.37400
O2201       O  0.09032015  0.88658066  0.47677974    -0.38300
O2202       O  0.04880512  0.90680270  0.47452998    -0.34400
O2203       O  0.07520955  0.85121173  0.33259798    -0.35800
O2204       O  0.03562685  0.87485515  0.33307734    -0.40100
C2205       C  0.88826335  0.91480724  0.35037827    -0.13800
C2206       C  0.88551516  0.91832661  0.38003928     0.16600
C2207       C  0.87102369  0.94222332  0.39080080     0.02900
C2208       C  0.85952408  0.96208470  0.37178683    -0.12300
C2209       C  0.86314750  0.95894805  0.34231319    -0.03400
C2210       C  0.87712472  0.93498352  0.33153875     0.02100
C2211       C  0.90026184  0.89808407  0.39888285     0.09000
N2212       N  0.86904397  0.94751931  0.42078704     0.65300
H2213       H  0.84836343  0.98047404  0.38005596     0.18200
N2214       N  0.87742317  0.92948053  0.30160271     0.75800
H2215       H  0.89904291  0.89628004  0.34189602     0.09700
C2216       C  0.88544629  0.87726102  0.41530245     0.03400
C2217       C  0.90082118  0.85668704  0.43025966    -0.05300
C2218       C  0.93066589  0.85661801  0.42920546    -0.23700
C2219       C  0.94553121  0.87759743  0.41319036     0.12700
C2220       C  0.93020187  0.89810163  0.39810862    -0.12800
N2221       N  0.85495492  0.87581804  0.41621938     0.64400
H2222       H  0.88937428  0.84055794  0.44268232     0.12200
N2223       N  0.97593233  0.87722601  0.41048371     0.61000
H2224       H  0.94167960  0.91371564  0.38509445     0.08400
O2225       O  0.89748614  0.93942183  0.28637423    -0.40500
O2226       O  0.85515491  0.91930086  0.28991373    -0.39600
O2227       O  0.88797239  0.96311706  0.43256474    -0.39600
O2228       O  0.84507234  0.94455067  0.43278958    -0.37400
O2229       O  0.98676981  0.86398660  0.38976756    -0.38300
O2230       O  0.99095345  0.89552377  0.42388558    -0.34400
O2231       O  0.84208530  0.85738121  0.40094696    -0.35800
O2232       O  0.84253287  0.88522178  0.43810780    -0.40100
C2233       C  0.91457695  0.90302463  0.58030661    -0.13800
C2234       C  0.91160281  0.89704289  0.60961111     0.16600
C2235       C  0.92125501  0.87030444  0.61990475     0.02900
C2236       C  0.93256241  0.85017072  0.60085550    -0.12300
C2237       C  0.93561158  0.85624616  0.57153100    -0.03400
C2238       C  0.92693877  0.88338492  0.56147647     0.02100
C2239       C  0.89648798  0.91809574  0.62824484     0.09000
N2240       N  0.92119865  0.86370664  0.64977730     0.65300
H2241       H  0.93981198  0.82987842  0.60930099     0.18200
N2242       N  0.92979806  0.89129332  0.53208933     0.75800
H2243       H  0.90668743  0.92296224  0.57170534     0.09700
C2244       C  0.90447415  0.94748040  0.62922684     0.03400
C2245       C  0.88824963  0.96688058  0.64500073    -0.05300
C2246       C  0.86329884  0.95825500  0.65946699    -0.23700
C2247       C  0.85568029  0.92868105  0.65912723     0.12700
C2248       C  0.87213200  0.90913497  0.64355200    -0.12800
N2249       N  0.92919844  0.95818693  0.61457566     0.64400
H2250       H  0.89531373  0.98902972  0.64552752     0.12200
N2251       N  0.83238496  0.91765178  0.67571673     0.61000
H2252       H  0.86546456  0.88677980  0.64306994     0.08400
O2253       O  0.94966852  0.90848921  0.52501141    -0.40500
O2254       O  0.90871628  0.88777971  0.51547454    -0.39600
O2255       O  0.90307774  0.84577164  0.65927041    -0.39600
O2256       O  0.94354392  0.86886453  0.66421418    -0.37400
O2257       O  0.83707331  0.91001323  0.70119716    -0.38300
O2258       O  0.81042333  0.90796718  0.66301461    -0.34400
O2259       O  0.92592462  0.97193482  0.59154180    -0.35800
O2260       O  0.95219947  0.96151545  0.62843812    -0.40100
C2261       C  0.09846320  0.87806826  0.59457229    -0.13800
C2262       C  0.07984567  0.89853782  0.60574119     0.16600
C2263       C  0.05097914  0.89809648  0.59672170     0.02900
C2264       C  0.04123524  0.87686953  0.57788989    -0.12300
C2265       C  0.05958080  0.85581858  0.56760117    -0.03400
C2266       C  0.08860278  0.85669234  0.57577776     0.02100
C2267       C  0.09156298  0.92114771  0.62506294     0.09000
N2268       N  0.03099650  0.91855570  0.60683346     0.65300
H2269       H  0.01884018  0.87647133  0.57179775     0.18200
N2270       N  0.10861735  0.83710289  0.56415593     0.75800
H2271       H  0.12098723  0.87903866  0.59997482     0.09700
C2272       C  0.10831128  0.91437032  0.64928114     0.03400
C2273       C  0.12181311  0.93628795  0.66492223    -0.05300
C2274       C  0.11823773  0.96517139  0.65761440    -0.23700
C2275       C  0.10016660  0.97203216  0.63439198     0.12700
C2276       C  0.08769908  0.95005196  0.61799793    -0.12800
N2277       N  0.11109763  0.88544560  0.65889422     0.64400
H2278       H  0.13500736  0.93069075  0.68314266     0.12200
N2279       N  0.09495457  0.00101332  0.62628998     0.61000
H2280       H  0.07551923  0.95572056  0.59914271     0.08400
O2281       O  0.11716273  0.81664145  0.57947580    -0.40500
O2282       O  0.12304508  0.84455376  0.54253880    -0.39600
O2283       O  0.02282549  0.93803593  0.59005578    -0.39600
O2284       O  0.01580512  0.91225489  0.62825972    -0.37400
O2285       O  0.07164029  0.01206750  0.63352795    -0.38300
O2286       O  0.10842787  0.01155376  0.60532854    -0.34400
O2287       O  0.13434327  0.87275271  0.65490531    -0.35800
O2288       O  0.09404504  0.87593389  0.67763146    -0.40100
C2289       C  0.23209817  0.81372541  0.49742198    -0.13800
C2290       C  0.22094742  0.78562725  0.49794011     0.16600
C2291       C  0.23989900  0.76274578  0.49970944     0.02900
C2292       C  0.26929278  0.76804289  0.50124396    -0.12300
C2293       C  0.28130424  0.79604578  0.49965339    -0.03400
C2294       C  0.26182292  0.81919354  0.49835478     0.02100
C2295       C  0.18960471  0.78034672  0.49618151     0.09000
N2296       N  0.22984915  0.73364665  0.49868719     0.65300
H2297       H  0.28199705  0.74928261  0.50364432     0.18200
N2298       N  0.27157300  0.84843353  0.49837515     0.75800
H2299       H  0.21760980  0.83158138  0.49626275     0.09700
C2300       C  0.17346111  0.77284562  0.52050189     0.03400
C2301       C  0.14402774  0.76781390  0.51801461    -0.05300
C2302       C  0.12969119  0.76997714  0.49156363    -0.23700
C2303       C  0.14614927  0.77720335  0.46699810     0.12700
C2304       C  0.17574045  0.78240961  0.46964190    -0.12800
N2305       N  0.18637048  0.77092694  0.54817169     0.64400
H2306       H  0.13236735  0.76232858  0.53729957     0.12200
N2307       N  0.13349909  0.77951075  0.43922784     0.61000
H2308       H  0.18803629  0.78800631  0.45076736     0.08400
O2309       O  0.27155615  0.86209937  0.52166001    -0.40500
O2310       O  0.27132591  0.86235052  0.47519391    -0.39600
O2311       O  0.22935945  0.72094973  0.47486468    -0.39600
O2312       O  0.23037507  0.71881801  0.52127286    -0.37400
O2313       O  0.13634685  0.75920279  0.42170511    -0.38300
O2314       O  0.12689350  0.80394945  0.42992521    -0.34400
O2315       O  0.18244977  0.79086748  0.56586642    -0.35800
O2316       O  0.19345883  0.74664077  0.55744551    -0.40100
C2317       C  0.39419903  0.70499518  0.49541287    -0.13800
C2318       C  0.40110462  0.70276581  0.46629291     0.16600
C2319       C  0.39920710  0.72742531  0.44882639     0.02900
C2320       C  0.38934103  0.75314087  0.46050370    -0.12300
C2321       C  0.37999996  0.75442901  0.48892906    -0.03400
C2322       C  0.38294405  0.73011978  0.50663957     0.02100
C2323       C  0.40674642  0.67350211  0.45519124     0.09000
N2324       N  0.40400236  0.72618108  0.41872438     0.65300
H2325       H  0.38628806  0.77139018  0.44648186     0.18200
N2326       N  0.37278897  0.72975559  0.53545389     0.75800
H2327       H  0.39564201  0.68631220  0.50916439     0.09700
C2328       C  0.43392530  0.66521851  0.44554191     0.03400
C2329       C  0.44035239  0.63597925  0.44379901    -0.05300
C2330       C  0.42050688  0.61478924  0.45239527    -0.23700
C2331       C  0.39269148  0.62297124  0.45978001     0.12700
C2332       C  0.38588541  0.65207623  0.46040550    -0.12800
N2333       N  0.45633120  0.68584352  0.44085609     0.64400
H2334       H  0.46205029  0.62996724  0.43876524     0.12200
N2335       N  0.37206499  0.60239883  0.46972027     0.61000
H2336       H  0.36489144  0.65807493  0.46782689     0.08400
O2337       O  0.39079463  0.73054216  0.55560497    -0.40500
O2338       O  0.34805855  0.71974533  0.54038399    -0.39600
O2339       O  0.38281152  0.72198878  0.40238523    -0.39600
O2340       O  0.42612231  0.73828171  0.40870835    -0.37400
O2341       O  0.35364985  0.59255152  0.45239112    -0.38300
O2342       O  0.36721080  0.60074372  0.49619526    -0.34400
O2343       O  0.47365638  0.69131429  0.46095556    -0.35800
O2344       O  0.46368508  0.69149693  0.41549441    -0.40100
C2345       C  0.17391735  0.25131620  0.47743034    -0.13800
C2346       C  0.18316152  0.23086512  0.49733173     0.16600
C2347       C  0.16373665  0.22082429  0.51828110     0.02900
C2348       C  0.13583547  0.23114928  0.51886032    -0.12300
C2349       C  0.12624654  0.25097363  0.49846709    -0.03400
C2350       C  0.14571520  0.26111227  0.47751703     0.02100
C2351       C  0.21356527  0.22185769  0.49708539     0.09000
N2352       N  0.17137770  0.19894824  0.53818764     0.65300
H2353       H  0.12115424  0.22248080  0.53469122     0.18200
N2354       N  0.13755181  0.28169803  0.45648469     0.75800
H2355       H  0.18878534  0.25999631  0.46182026     0.09700
C2356       C  0.22621223  0.20955256  0.47278461     0.03400
C2357       C  0.25522305  0.20251849  0.47317104    -0.05300
C2358       C  0.27278020  0.20795527  0.49726308    -0.23700
C2359       C  0.26013311  0.22199289  0.52096385     0.12700
C2360       C  0.23085108  0.22800655  0.52087121    -0.12800
N2361       N  0.21012805  0.20450108  0.44716835     0.64400
H2362       H  0.26376560  0.19390905  0.45369079     0.12200
N2363       N  0.27680285  0.23165500  0.54488375     0.61000
H2364       H  0.22178087  0.23875962  0.53917546     0.08400
O2365       O  0.13315536  0.27345384  0.43111838    -0.40500
O2366       O  0.14266837  0.30794058  0.46114103    -0.39600
O2367       O  0.17615127  0.20572442  0.56391374    -0.39600
O2368       O  0.16515287  0.17318441  0.53228257    -0.37400
O2369       O  0.27496288  0.21807712  0.56819955    -0.38300
O2370       O  0.28562007  0.25738414  0.54530986    -0.34400
O2371       O  0.21256322  0.22208922  0.42672862    -0.35800
O2372       O  0.20058637  0.17954089  0.44212843    -0.40100
C2373       C  0.41318279  0.27500015  0.47497705    -0.13800
C2374       C  0.40777140  0.29792132  0.49342805     0.16600
C2375       C  0.38551048  0.29542265  0.51349841     0.02900
C2376       C  0.36873181  0.27048580  0.51448920    -0.12300
C2377       C  0.37307866  0.24806538  0.49520302    -0.03400
C2378       C  0.39587858  0.25013181  0.47551859     0.02100
C2379       C  0.42234194  0.32574576  0.48853978     0.09000
N2380       N  0.37854518  0.31864600  0.53193317     0.65300
H2381       H  0.35142918  0.26906075  0.52982106     0.18200
N2382       N  0.40008606  0.22865916  0.45423436     0.75800
H2383       H  0.42979363  0.27713848  0.45897066     0.09700
C2384       C  0.45012320  0.33174252  0.49882491     0.03400
C2385       C  0.46235514  0.35905882  0.49472185    -0.05300
C2386       C  0.44696461  0.38057164  0.48087851    -0.23700
C2387       C  0.41963462  0.37413813  0.46953786     0.12700
C2388       C  0.40766910  0.34676624  0.47328141    -0.12800
N2389       N  0.46541200  0.31096402  0.51493513     0.64400
H2390       H  0.48316565  0.36399445  0.50394012     0.12200
N2391       N  0.40361228  0.39525034  0.45452281     0.61000
H2392       H  0.38648482  0.34207043  0.46485024     0.08400
O2393       O  0.42079654  0.21186898  0.45684174    -0.40500
O2394       O  0.38859637  0.23166661  0.42996423    -0.39600
O2395       O  0.35798236  0.33450865  0.52523182    -0.39600
O2396       O  0.38700134  0.31811455  0.55758883    -0.37400
O2397       O  0.40392403  0.39540497  0.42752337    -0.38300
O2398       O  0.38397738  0.40812233  0.46741916    -0.34400
O2399       O  0.48650575  0.29887257  0.50372780    -0.35800
O2400       O  0.46218414  0.30982047  0.54170657    -0.40100
C2401       C  0.71608208  0.27152438  0.97478490    -0.13800
C2402       C  0.70436187  0.28822800  0.99646260     0.16600
C2403       C  0.68679722  0.27474106  0.01703918     0.02900
C2404       C  0.68260523  0.24490081  0.01643307    -0.12300
C2405       C  0.69568269  0.22744417  0.99570104    -0.03400
C2406       C  0.71177950  0.24168840  0.97393119     0.02100
C2407       C  0.71052709  0.31960988  0.99624919     0.09000
N2408       N  0.67177666  0.29093492  0.03793124     0.65300
H2409       H  0.66819914  0.23612419  0.03216589     0.18200
N2410       N  0.72416298  0.22645128  0.95067353     0.75800
H2411       H  0.72891374  0.28179077  0.95829542     0.09700
C2412       C  0.72934041  0.33250536  0.01624810     0.03400
C2413       C  0.73740887  0.36138692  0.01324473    -0.05300
C2414       C  0.72692390  0.37823554  0.99072856    -0.23700
C2415       C  0.70756095  0.36545708  0.97098201     0.12700
C2416       C  0.69985793  0.33633700  0.97374421    -0.12800
N2417       N  0.74124140  0.31649152  0.03932253     0.64400
H2418       H  0.75217671  0.37066332  0.02872632     0.12200
N2419       N  0.69390517  0.38203999  0.94931936     0.61000
H2420       H  0.68524617  0.32672812  0.95831298     0.08400
O2421       O  0.75092464  0.22352355  0.95029276    -0.40500
O2422       O  0.71053937  0.22483341  0.92736218    -0.39600
O2423       O  0.64569564  0.29595028  0.03362053    -0.39600
O2424       O  0.68113681  0.29152101  0.06327147    -0.37400
O2425       O  0.70106251  0.37896283  0.92351942    -0.38300
O2426       O  0.67044087  0.39362674  0.95495334    -0.34400
O2427       O  0.76517319  0.30496128  0.03589712    -0.35800
O2428       O  0.73274566  0.32132172  0.06441877    -0.40100
C2429       C  0.77517604  0.09858791  0.96631092    -0.13800
C2430       C  0.79810502  0.10577589  0.98454092     0.16600
C2431       C  0.79337763  0.12494629  0.00735821     0.02900
C2432       C  0.76663989  0.13739632  0.01068214    -0.12300
C2433       C  0.74410441  0.13141451  0.99164632    -0.03400
C2434       C  0.74830306  0.11117877  0.96964593     0.02100
C2435       C  0.82724954  0.09520917  0.97814147     0.09000
N2436       N  0.81557723  0.13241513  0.02721041     0.65300
H2437       H  0.76370911  0.15263382  0.02787740     0.18200
N2438       N  0.72646912  0.10487270  0.94907867     0.75800
H2439       H  0.77851427  0.08422085  0.94848448     0.09700
C2440       C  0.83341341  0.06569895  0.97713063     0.03400
C2441       C  0.86167183  0.05705197  0.97369059    -0.05300
C2442       C  0.88416719  0.07715694  0.97083668    -0.23700
C2443       C  0.87778501  0.10651749  0.96938856     0.12700
C2444       C  0.84945553  0.11525591  0.97296704    -0.12800
N2445       N  0.81169538  0.04419062  0.98130256     0.64400
H2446       H  0.86632449  0.03436683  0.97495418     0.12200
N2447       N  0.89978146  0.12780096  0.96580862     0.61000
H2448       H  0.84487331  0.13794538  0.97242584     0.08400
O2449       O  0.71167992  0.08216702  0.95188522    -0.40500
O2450       O  0.72781768  0.11674490  0.92483095    -0.39600
O2451       O  0.82823365  0.15640694  0.02473812    -0.39600
O2452       O  0.81648197  0.11951893  0.05094226    -0.37400
O2453       O  0.90366289  0.13861457  0.94133248    -0.38300
O2454       O  0.90917403  0.14105082  0.98749564    -0.34400
O2455       O  0.80201984  0.03078983  0.95981646    -0.35800
O2456       O  0.80863757  0.03321915  0.00581909    -0.40100
C2457       C  0.27998829  0.27354756  0.97504633    -0.13800
C2458       C  0.28684734  0.29174827  0.99790177     0.16600
C2459       C  0.30311238  0.28094408  0.02083830     0.02900
C2460       C  0.31156180  0.25233176  0.02081108    -0.12300
C2461       C  0.30394288  0.23345445  0.99840187    -0.03400
C2462       C  0.28861725  0.24498132  0.97475863     0.02100
C2463       C  0.27550866  0.32130456  0.99801903     0.09000
N2464       N  0.31148626  0.29869253  0.04444318     0.65300
H2465       H  0.32396484  0.24552255  0.03891226     0.18200
N2466       N  0.28087436  0.22796611  0.95039770     0.75800
H2467       H  0.26709472  0.28131047  0.95746066     0.09700
C2468       C  0.27911496  0.33998725  0.97446460     0.03400
C2469       C  0.26757651  0.36734450  0.97521067    -0.05300
C2470       C  0.25263500  0.37707759  0.99921857    -0.23700
C2471       C  0.24815343  0.35804064  0.02241357     0.12700
C2472       C  0.25927042  0.33037183  0.02140265    -0.12800
N2473       N  0.29553447  0.33216910  0.95006575     0.64400
H2474       H  0.27169968  0.38154778  0.95725171     0.12200
N2475       N  0.23187504  0.36599423  0.04684836     0.61000
H2476       H  0.25494277  0.31579014  0.03897582     0.08400
O2477       O  0.25531518  0.21921641  0.94782296    -0.40500
O2478       O  0.29610554  0.22995639  0.92823882    -0.39600
O2479       O  0.29841721  0.29592291  0.06788933    -0.39600
O2480       O  0.33609321  0.31018204  0.04441761    -0.37400
O2481       O  0.20593234  0.35829057  0.04810533    -0.38300
O2482       O  0.24483652  0.37275939  0.06965084    -0.34400
O2483       O  0.28286090  0.32763511  0.92657467    -0.35800
O2484       O  0.32200170  0.33779673  0.94996728    -0.40100
C2485       C  0.23150550  0.09402914  0.97869164    -0.13800
C2486       C  0.20642384  0.10458018  0.99099178     0.16600
C2487       C  0.20816164  0.13063486  0.00640682     0.02900
C2488       C  0.23441159  0.14451837  0.01031244    -0.12300
C2489       C  0.25927537  0.13511186  0.99680188    -0.03400
C2490       C  0.25763834  0.10937526  0.98072812     0.02100
C2491       C  0.17906218  0.08762543  0.98995705     0.09000
N2492       N  0.18321872  0.14450091  0.01679777     0.65300
H2493       H  0.23488840  0.16378219  0.02323503     0.18200
N2494       N  0.28147602  0.09924464  0.96491300     0.75800
H2495       H  0.23089717  0.07385996  0.96726720     0.09700
C2496       C  0.16728497  0.07567915  0.96456869     0.03400
C2497       C  0.14002460  0.06256839  0.96510539    -0.05300
C2498       C  0.12360642  0.06223446  0.99013932    -0.23700
C2499       C  0.13598413  0.07308722  0.01569240     0.12700
C2500       C  0.16376195  0.08428452  0.01548775    -0.12800
N2501       N  0.18169922  0.07802823  0.93776750     0.64400
H2502       H  0.13113261  0.05379361  0.94554262     0.12200
N2503       N  0.12057734  0.07365078  0.04206797     0.61000
H2504       H  0.17301391  0.09157228  0.03552053     0.08400
O2505       O  0.29595530  0.07908003  0.97519653    -0.40500
O2506       O  0.28222913  0.10372615  0.93828640    -0.39600
O2507       O  0.17932956  0.14618995  0.04344840    -0.39600
O2508       O  0.17055052  0.16180903  0.00052337    -0.37400
O2509       O  0.12698979  0.05622391  0.06164131    -0.38300
O2510       O  0.10749938  0.09613756  0.04862707    -0.34400
O2511       O  0.19345872  0.05614679  0.92759613    -0.35800
O2512       O  0.17548832  0.09836503  0.92115653    -0.40100
C2513       C  0.76184926  0.81320703  0.49635120    -0.13800
C2514       C  0.76928218  0.78455987  0.50055141     0.16600
C2515       C  0.74779910  0.76446112  0.50759872     0.02900
C2516       C  0.71935574  0.77293508  0.50929390    -0.12300
C2517       C  0.71106129  0.80137554  0.50342136    -0.03400
C2518       C  0.73329915  0.82189533  0.49814216     0.02100
C2519       C  0.79990743  0.77702992  0.50107129     0.09000
N2520       N  0.75451857  0.73547952  0.51441706     0.65300
H2521       H  0.70433249  0.75676213  0.51642085     0.18200
N2522       N  0.72769049  0.85178801  0.49526662     0.75800
H2523       H  0.77850041  0.82914558  0.49231875     0.09700
C2524       C  0.81388834  0.76606729  0.47692312     0.03400
C2525       C  0.84345631  0.76186058  0.47771336    -0.05300
C2526       C  0.85978727  0.76847709  0.50223122    -0.23700
C2527       C  0.84539246  0.77895465  0.52672274     0.12700
C2528       C  0.81579866  0.78303410  0.52581066    -0.12800
N2529       N  0.79865021  0.76002844  0.45104632     0.64400
H2530       H  0.85370551  0.75370182  0.45873491     0.12200
N2531       N  0.86036816  0.78698040  0.55228079     0.61000
H2532       H  0.80521412  0.79176442  0.54438217     0.08400
O2533       O  0.72763874  0.86710439  0.51750388    -0.40500
O2534       O  0.73222599  0.86372781  0.47142408    -0.39600
O2535       O  0.75625955  0.72824693  0.54038512    -0.39600
O2536       O  0.75024093  0.71631425  0.49578670    -0.37400
O2537       O  0.86956373  0.81244716  0.55490048    -0.38300
O2538       O  0.85730839  0.77170644  0.57441052    -0.34400
O2539       O  0.80067128  0.77753320  0.43050578    -0.35800
O2540       O  0.79044887  0.73459949  0.44607207    -0.40100
C2541       C  0.58533548  0.72553855  0.52282798    -0.13800
C2542       C  0.56844968  0.72201548  0.49822729     0.16600
C2543       C  0.56900289  0.74361863  0.47701531     0.02900
C2544       C  0.58784260  0.76714903  0.47994250    -0.12300
C2545       C  0.60630762  0.76940537  0.50350270    -0.03400
C2546       C  0.60412021  0.74896233  0.52565278     0.02100
C2547       C  0.55214870  0.69468345  0.49518605     0.09000
N2548       N  0.55057108  0.74226762  0.45259883     0.65300
H2549       H  0.58871719  0.78309586  0.46321732     0.18200
N2550       N  0.62058666  0.75181288  0.55130748     0.75800
H2551       H  0.58458979  0.70946566  0.53961238     0.09700
C2552       C  0.56115108  0.67335159  0.47612663     0.03400
C2553       C  0.54970622  0.64563534  0.47814184    -0.05300
C2554       C  0.52923427  0.63807411  0.49894491    -0.23700
C2555       C  0.51898533  0.65994861  0.51704315     0.12700
C2556       C  0.53073966  0.68783273  0.51516051    -0.12800
N2557       N  0.58320281  0.67873568  0.45564847     0.64400
H2558       H  0.55758351  0.62973961  0.46338180     0.12200
N2559       N  0.49729627  0.65438785  0.53784611     0.61000
H2560       H  0.52379179  0.70405686  0.53006373     0.08400
O2561       O  0.60918336  0.76290020  0.57296339    -0.40500
O2562       O  0.64237803  0.73658419  0.55463602    -0.39600
O2563       O  0.52744283  0.75576195  0.45322675    -0.39600
O2564       O  0.56099588  0.73588348  0.42863582    -0.37400
O2565       O  0.50449202  0.65018299  0.56354362    -0.38300
O2566       O  0.47199309  0.66160473  0.53233474    -0.34400
O2567       O  0.60875652  0.67403190  0.46268993    -0.35800
O2568       O  0.57664665  0.67878410  0.42943168    -0.40100
C2569       C  0.73072770  0.69297062  0.02148614    -0.13800
C2570       C  0.71188764  0.70276654  0.00038499     0.16600
C2571       C  0.70228326  0.68377694  0.97890613     0.02900
C2572       C  0.71158933  0.65549240  0.97882944    -0.12300
C2573       C  0.73046086  0.64545452  0.99991408    -0.03400
C2574       C  0.74005067  0.66457315  0.02150143     0.02100
C2575       C  0.70429566  0.73338535  0.99996199     0.09000
N2576       N  0.68247313  0.69263031  0.95744143     0.65300
H2577       H  0.70341382  0.64110272  0.96241940     0.18200
N2578       N  0.76035274  0.65612929  0.04265159     0.75800
H2579       H  0.73879024  0.70767696  0.03766700     0.09700
C2580       C  0.68867462  0.74568554  0.02224335     0.03400
C2581       C  0.68343283  0.77503061  0.02209214    -0.05300
C2582       C  0.69361313  0.79316703  0.00005127    -0.23700
C2583       C  0.71005288  0.78054404  0.97795033     0.12700
C2584       C  0.71483514  0.75096124  0.97800441    -0.12800
N2585       N  0.67797955  0.72874103  0.04546491     0.64400
H2586       H  0.67189888  0.78296433  0.04015938     0.12200
N2587       N  0.72274579  0.79735317  0.95557598     0.61000
H2588       H  0.72762905  0.74175783  0.96116448     0.08400
O2589       O  0.75196016  0.65141619  0.06787868    -0.40500
O2590       O  0.78654231  0.66123760  0.03826781    -0.39600
O2591       O  0.69113637  0.69652753  0.93217420    -0.39600
O2592       O  0.65604653  0.68930021  0.96191083    -0.37400
O2593       O  0.74860890  0.80513522  0.95800011    -0.38300
O2594       O  0.71166657  0.79640934  0.93093186    -0.34400
O2595       O  0.69076573  0.72996300  0.06926544    -0.35800
O2596       O  0.65233013  0.71996920  0.04468919    -0.40100
C2597       C  0.78140320  0.90846997  0.03138140    -0.13800
C2598       C  0.78486933  0.93055844  0.01126834     0.16600
C2599       C  0.76326458  0.93456082  0.99049016     0.02900
C2600       C  0.73945567  0.91590903  0.98947836    -0.12300
C2601       C  0.73677565  0.89280947  0.00855108    -0.03400
C2602       C  0.75771976  0.88964067  0.03024378     0.02100
C2603       C  0.81325110  0.94523574  0.00908307     0.09000
N2604       N  0.76546234  0.95704956  0.96978199     0.65300
H2605       H  0.72355668  0.91882932  0.97284867     0.18200
N2606       N  0.75524385  0.86772725  0.05154229     0.75800
H2607       H  0.79788269  0.90494209  0.04730030     0.09700
C2608       C  0.82559656  0.96150296  0.03156544     0.03400
C2609       C  0.85389307  0.97174662  0.02932843    -0.05300
C2610       C  0.87064890  0.96569361  0.00526760    -0.23700
C2611       C  0.85787208  0.94993168  0.98257990     0.12700
C2612       C  0.82966237  0.93985123  0.98479027    -0.12800
N2613       N  0.80973730  0.96820866  0.05664873     0.64400
H2614       H  0.86285986  0.98424360  0.04675519     0.12200
N2615       N  0.87275059  0.94460166  0.95661597     0.61000
H2616       H  0.82072327  0.92700970  0.96752753     0.08400
O2617       O  0.77066463  0.84587707  0.04965099    -0.40500
O2618       O  0.74460221  0.87393633  0.07546423    -0.39600
O2619       O  0.77343413  0.95116299  0.94473739    -0.39600
O2620       O  0.75223477  0.97998990  0.97405053    -0.37400
O2621       O  0.88378590  0.92038937  0.95294472    -0.38300
O2622       O  0.86774970  0.96022410  0.93516275    -0.34400
O2623       O  0.81523882  0.95519616  0.07966234    -0.35800
O2624       O  0.79723922  0.99193516  0.05780596    -0.40100
C2625       C  0.28940474  0.68373787  0.98645332    -0.13800
C2626       C  0.27199179  0.70244815  0.00153206     0.16600
C2627       C  0.24618008  0.69230412  0.01348980     0.02900
C2628       C  0.23907579  0.66319318  0.01156610    -0.12300
C2629       C  0.25666758  0.64433411  0.99694901    -0.03400
C2630       C  0.28165929  0.65487247  0.98365597     0.02100
C2631       C  0.28009170  0.73287931  0.00219951     0.09000
N2632       N  0.22666395  0.71131408  0.02682158     0.65300
H2633       H  0.21959380  0.65537983  0.02101301     0.18200
N2634       N  0.29993742  0.63630709  0.96820183     0.75800
H2635       H  0.30891342  0.69168130  0.97655756     0.09700
C2636       C  0.29887650  0.74408273  0.02298738     0.03400
C2637       C  0.30662846  0.77309667  0.02227549    -0.05300
C2638       C  0.29610298  0.79146381  0.00085458    -0.23700
C2639       C  0.27874823  0.77920112  0.97878782     0.12700
C2640       C  0.27072181  0.75030145  0.97997174    -0.12800
N2641       N  0.31031050  0.72633949  0.04503464     0.64400
H2642       H  0.32050624  0.78065176  0.03913212     0.12200
N2643       N  0.26884800  0.79565644  0.95498580     0.61000
H2644       H  0.25719745  0.74130230  0.96323716     0.08400
O2645       O  0.32232505  0.62740644  0.98009837    -0.40500
O2646       O  0.29725292  0.63429462  0.94140246    -0.39600
O2647       O  0.20658958  0.72156654  0.01211686    -0.39600
O2648       O  0.22500179  0.71176123  0.05375479    -0.37400
O2649       O  0.28274293  0.79492159  0.93190927    -0.38300
O2650       O  0.24291156  0.80258901  0.95407757    -0.34400
O2651       O  0.33613323  0.71911408  0.04363346    -0.35800
O2652       O  0.29761047  0.72480345  0.06876717    -0.40100
C2653       C  0.20346647  0.89177863  0.03700304    -0.13800
C2654       C  0.19139224  0.90459663  0.01289425     0.16600
C2655       C  0.20815541  0.90826546  0.98792283     0.02900
C2656       C  0.23607097  0.89817045  0.98727515    -0.12300
C2657       C  0.24755698  0.88411594  0.01090392    -0.03400
C2658       C  0.23119563  0.88125280  0.03621053     0.02100
C2659       C  0.16297436  0.91759041  0.01561237     0.09000
N2660       N  0.19686133  0.92112652  0.96261640     0.65300
H2661       H  0.24824841  0.89985065  0.96762859     0.18200
N2662       N  0.24204460  0.86735605  0.06118527     0.75800
H2663       H  0.19134475  0.89004320  0.05666355     0.09700
C2664       C  0.13811096  0.90205722  0.02408958     0.03400
C2665       C  0.11191348  0.91615585  0.02623080    -0.05300
C2666       C  0.11029217  0.94545251  0.02006683    -0.23700
C2667       C  0.13552298  0.96094792  0.01316810     0.12700
C2668       C  0.16141427  0.94705811  0.01130813    -0.12800
N2669       N  0.13873350  0.87190644  0.02934356     0.64400
H2670       H  0.09263303  0.90390724  0.03110065     0.12200
N2671       N  0.13525155  0.99084383  0.00698790     0.61000
H2672       H  0.18051117  0.95949159  0.00615864     0.08400
O2673       O  0.23547482  0.84133402  0.06531963    -0.40500
O2674       O  0.24895156  0.88255118  0.08250415    -0.39600
O2675       O  0.20610961  0.94558723  0.95514408    -0.39600
O2676       O  0.18481094  0.90525597  0.94418123    -0.37400
O2677       O  0.14154872  0.00814888  0.02681824    -0.38300
O2678       O  0.13870869  0.99870514  0.98137707    -0.34400
O2679       O  0.13776265  0.86300690  0.05483963    -0.35800
O2680       O  0.13210892  0.85488423  0.00933900    -0.40100
C2681       C  0.26029730  0.03262005  0.28963314    -0.13800
C2682       C  0.27276186  0.00562491  0.28721615     0.16600
C2683       C  0.25574564  0.98112493  0.29356671     0.02900
C2684       C  0.22687963  0.98403696  0.30057173    -0.12300
C2685       C  0.21381344  0.01106577  0.30209052    -0.03400
C2686       C  0.23130352  0.03561657  0.29630690     0.02100
C2687       C  0.30359486  0.00388380  0.27902862     0.09000
N2688       N  0.26678075  0.95279601  0.29172649     0.65300
H2689       H  0.21472868  0.96435975  0.30302384     0.18200
N2690       N  0.22001069  0.06387825  0.29571198     0.75800
H2691       H  0.27315123  0.05181017  0.28608652     0.09700
C2692       C  0.31516989  0.01955269  0.25561781     0.03400
C2693       C  0.34470220  0.01974517  0.25052741    -0.05300
C2694       C  0.36322063  0.00369076  0.26753716    -0.23700
C2695       C  0.35161035  0.98715032  0.29024495     0.12700
C2696       C  0.32226059  0.98792935  0.29610099    -0.12800
N2697       N  0.29726316  0.03467951  0.23613026     0.64400
H2698       H  0.35315683  0.03210401  0.23270867     0.12200
N2699       N  0.36938469  0.97062026  0.30864117     0.61000
H2700       H  0.31422157  0.97654373  0.31468319     0.08400
O2701       O  0.21528054  0.07529493  0.27172420    -0.40500
O2702       O  0.22421149  0.07998122  0.31704374    -0.39600
O2703       O  0.27141174  0.93916789  0.31459363    -0.39600
O2704       O  0.26311646  0.93889521  0.26882989    -0.37400
O2705       O  0.37659873  0.98091881  0.33255465    -0.38300
O2706       O  0.37018083  0.94382452  0.30516325    -0.34400
O2707       O  0.29706958  0.06172179  0.23704427    -0.35800
O2708       O  0.28890731  0.02218118  0.21360183    -0.40100
C2709       C  0.67917881  0.99060624  0.25320370    -0.13800
C2710       C  0.69049586  0.01072227  0.27248557     0.16600
C2711       C  0.67280356  0.03164160  0.28415367     0.02900
C2712       C  0.64389272  0.03207532  0.27652166    -0.12300
C2713       C  0.63207067  0.01153365  0.25771697    -0.03400
C2714       C  0.65017223  0.99068641  0.24582264     0.02100
C2715       C  0.72093991  0.00974573  0.28025424     0.09000
N2716       N  0.68376241  0.05155964  0.30486200     0.65300
H2717       H  0.63026948  0.04766480  0.28635351     0.18200
N2718       N  0.63974712  0.96969697  0.22596511     0.75800
H2719       H  0.69295493  0.97467795  0.24391982     0.09700
C2720       C  0.73145269  0.98746970  0.29719409     0.03400
C2721       C  0.76044924  0.98667722  0.30379878    -0.05300
C2722       C  0.77978418  0.00822505  0.29430438    -0.23700
C2723       C  0.76864686  0.03109694  0.27769262     0.12700
C2724       C  0.73954221  0.03146670  0.27076626    -0.12800
N2725       N  0.71285473  0.96552495  0.30824138     0.64400
H2726       H  0.76705869  0.96835381  0.31589973     0.12200
N2727       N  0.78637987  0.05426076  0.26765912     0.61000
H2728       H  0.73140905  0.04880812  0.25776431     0.08400
O2729       O  0.64178031  0.97483725  0.19952587    -0.40500
O2730       O  0.63682069  0.94403084  0.23420079    -0.39600
O2731       O  0.69315151  0.07574838  0.29674780    -0.39600
O2732       O  0.68935488  0.04295417  0.32985004    -0.37400
O2733       O  0.78547032  0.07804186  0.28045551    -0.38300
O2734       O  0.79527415  0.05375957  0.24221368    -0.34400
O2735       O  0.71156793  0.94152872  0.29582886    -0.35800
O2736       O  0.70406067  0.96747138  0.33364384    -0.40100
C2737       C  0.41171857  0.92817728  0.39447870    -0.13800
C2738       C  0.41017923  0.89859525  0.38870755     0.16600
C2739       C  0.42147304  0.88866600  0.36257033     0.02900
C2740       C  0.43362018  0.90811321  0.34311613    -0.12300
C2741       C  0.43592868  0.93752799  0.34923405    -0.03400
C2742       C  0.42512218  0.94751516  0.37554096     0.02100
C2743       C  0.39590343  0.87876661  0.40963910     0.09000
N2744       N  0.42202259  0.85880060  0.35579645     0.65300
H2745       H  0.44220835  0.89987194  0.32330430     0.18200
N2746       N  0.42750262  0.97702296  0.38358801     0.75800
H2747       H  0.40237316  0.93648300  0.41384985     0.09700
C2748       C  0.40243696  0.87949532  0.43920455     0.03400
C2749       C  0.38801464  0.86114679  0.45816928    -0.05300
C2750       C  0.36713479  0.84143143  0.44865714    -0.23700
C2751       C  0.36044019  0.84062826  0.41906741     0.12700
C2752       C  0.37455687  0.85943932  0.40009570    -0.12800
N2753       N  0.42408349  0.89828746  0.45052214     0.64400
H2754       H  0.39320295  0.86258862  0.48074260     0.12200
N2755       N  0.34050843  0.82014287  0.40748298     0.61000
H2756       H  0.36860689  0.85896363  0.37768726     0.08400
O2757       O  0.44802988  0.98478191  0.39952156    -0.40500
O2758       O  0.40559650  0.99238666  0.38251257    -0.39600
O2759       O  0.40607344  0.84927821  0.33601837    -0.39600
O2760       O  0.44346840  0.84451420  0.36325321    -0.37400
O2761       O  0.35004104  0.79801490  0.39558006    -0.38300
O2762       O  0.31567924  0.82821293  0.40109322    -0.34400
O2763       O  0.41668059  0.91968779  0.46505617    -0.35800
O2764       O  0.44914044  0.88909904  0.45332472    -0.40100
C2765       C  0.60460844  0.91448238  0.36647431    -0.13800
C2766       C  0.58769812  0.90343966  0.38879497     0.16600
C2767       C  0.55854976  0.91081465  0.38987092     0.02900
C2768       C  0.54708877  0.92903214  0.36903130    -0.12300
C2769       C  0.56384898  0.93982342  0.34650488    -0.03400
C2770       C  0.59296086  0.93217829  0.34520388     0.02100
C2771       C  0.60137929  0.88532635  0.41111633     0.09000
N2772       N  0.54023603  0.90051453  0.41214601     0.65300
H2773       H  0.52464725  0.93431754  0.37018727     0.18200
N2774       N  0.61122738  0.94267216  0.32293720     0.75800
H2775       H  0.62704651  0.90918169  0.36547849     0.09700
C2776       C  0.59668954  0.85534548  0.41237692     0.03400
C2777       C  0.61041243  0.83904108  0.43341059    -0.05300
C2778       C  0.62925147  0.85186818  0.45306154    -0.23700
C2779       C  0.63510788  0.88149989  0.45105075     0.12700
C2780       C  0.62108917  0.89803303  0.43029142    -0.12800
N2781       N  0.57957243  0.84077074  0.39142838     0.64400
H2782       H  0.60699748  0.81608553  0.43375296     0.12200
N2783       N  0.65559621  0.89487897  0.46968608     0.61000
H2784       H  0.62565772  0.92086300  0.42904072     0.08400
O2785       O  0.61613726  0.92675073  0.30177328    -0.40500
O2786       O  0.62789469  0.96363397  0.32800586    -0.39600
O2787       O  0.53460595  0.91710136  0.43258787    -0.39600
O2788       O  0.52320316  0.87993203  0.40679471    -0.37400
O2789       O  0.64887620  0.90060171  0.49512763    -0.38300
O2790       O  0.68150218  0.89619956  0.46237312    -0.34400
O2791       O  0.59167780  0.83073435  0.36963614    -0.35800
O2792       O  0.55553194  0.83054227  0.39866710    -0.40100
C2793       C  0.39357477  0.12544502  0.43571496    -0.13800
C2794       C  0.39014107  0.13383129  0.40713513     0.16600
C2795       C  0.37136064  0.15612695  0.40037451     0.02900
C2796       C  0.35641299  0.16967960  0.42220457    -0.12300
C2797       C  0.35989337  0.16139077  0.45082236    -0.03400
C2798       C  0.37872694  0.13903705  0.45760259     0.02100
C2799       C  0.40518126  0.11774046  0.38476852     0.09000
N2800       N  0.36749886  0.16548967  0.37154110     0.65300
H2801       H  0.34232582  0.18710991  0.41681849     0.18200
N2802       N  0.38184796  0.12872855  0.48623958     0.75800
H2803       H  0.40741947  0.10778122  0.44098147     0.09700
C2804       C  0.43515332  0.11893732  0.38256115     0.03400
C2805       C  0.44912261  0.10054092  0.36354997    -0.05300
C2806       C  0.43327897  0.08157130  0.34597086    -0.23700
C2807       C  0.40310418  0.08159288  0.34747113     0.12700
C2808       C  0.38943711  0.09919107  0.36713036    -0.12800
N2809       N  0.45125679  0.13960571  0.39877202     0.64400
H2810       H  0.47220960  0.10166561  0.36187328     0.12200
N2811       N  0.38587928  0.06334060  0.32972007     0.61000
H2812       H  0.36635081  0.09808484  0.36889919     0.08400
O2813       O  0.40507333  0.13343605  0.49936303    -0.40500
O2814       O  0.36547429  0.10874309  0.49481328    -0.39600
O2815       O  0.34655807  0.15571874  0.35729448    -0.39600
O2816       O  0.38006246  0.18815434  0.36323167    -0.37400
O2817       O  0.37653325  0.04001012  0.34000031    -0.38300
O2818       O  0.37310228  0.07416602  0.30858607    -0.34400
O2819       O  0.45862837  0.13358907  0.42403280    -0.35800
O2820       O  0.45116021  0.16554788  0.39102195    -0.40100
C2821       C  0.52123036  0.24781879  0.21114635    -0.13800
C2822       C  0.49752049  0.22991284  0.20567381     0.16600
C2823       C  0.47392928  0.24132887  0.19105115     0.02900
C2824       C  0.47409442  0.27017863  0.18290376    -0.12300
C2825       C  0.49752096  0.28870612  0.18882433    -0.03400
C2826       C  0.52170334  0.27665809  0.20265921     0.02100
C2827       C  0.49725272  0.19991156  0.21657244     0.09000
N2828       N  0.44939959  0.22395565  0.18417900     0.65300
H2829       H  0.45506313  0.27746608  0.17247066     0.18200
N2830       N  0.54704881  0.29323780  0.20852800     0.75800
H2831       H  0.53941189  0.23956997  0.22275866     0.09700
C2832       C  0.51984273  0.18113022  0.21088435     0.03400
C2833       C  0.51901285  0.15328375  0.22180485    -0.05300
C2834       C  0.49597672  0.14319028  0.23842428    -0.23700
C2835       C  0.47368329  0.16218621  0.24484446     0.12700
C2836       C  0.47464871  0.19028632  0.23405895    -0.12800
N2837       N  0.54336735  0.18946556  0.19313135     0.64400
H2838       H  0.53620098  0.13909736  0.21613830     0.12200
N2839       N  0.45042048  0.15376547  0.26291255     0.61000
H2840       H  0.45777861  0.20481081  0.23974093     0.08400
O2841       O  0.56876286  0.28944683  0.19313291    -0.40500
O2842       O  0.55048863  0.30384643  0.23314613    -0.39600
O2843       O  0.42633259  0.22801085  0.19736491    -0.39600
O2844       O  0.44865130  0.21085714  0.16058321    -0.37400
O2845       O  0.45285608  0.15709055  0.28960497    -0.38300
O2846       O  0.42581925  0.15040152  0.25216199    -0.34400
O2847       O  0.56778736  0.19277564  0.20433119    -0.35800
O2848       O  0.54145727  0.18559426  0.16647723    -0.40100
C2849       C  0.52001073  0.82917221  0.23448733    -0.13800
C2850       C  0.49868192  0.82054476  0.21499638     0.16600
C2851       C  0.47665604  0.83964832  0.20812859     0.02900
C2852       C  0.47664403  0.86693006  0.22028167    -0.12300
C2853       C  0.49827120  0.87595441  0.23930392    -0.03400
C2854       C  0.52007897  0.85664069  0.24661188     0.02100
C2855       C  0.49789489  0.79051414  0.20485406     0.09000
N2856       N  0.45457129  0.83209590  0.18816464     0.65300
H2857       H  0.46003635  0.88155016  0.21386210     0.18200
N2858       N  0.54169075  0.86396556  0.26713574     0.75800
H2859       H  0.53633442  0.81423640  0.24089172     0.09700
C2860       C  0.52075223  0.77828525  0.18996559     0.03400
C2861       C  0.52010237  0.74900769  0.18350658    -0.05300
C2862       C  0.49719950  0.73096753  0.19211527    -0.23700
C2863       C  0.47398781  0.74382071  0.20663090     0.12700
C2864       C  0.47468544  0.77310747  0.21273854    -0.12800
N2865       N  0.54524879  0.79503269  0.18179270     0.64400
H2866       H  0.53845832  0.74090109  0.17260799     0.12200
N2867       N  0.45009787  0.72741263  0.21698993     0.61000
H2868       H  0.45736860  0.78207687  0.22497867     0.08400
O2869       O  0.56633749  0.87102321  0.25849262    -0.40500
O2870       O  0.53858818  0.85574579  0.29269452    -0.39600
O2871       O  0.43043970  0.82411262  0.19749897    -0.39600
O2872       O  0.45648121  0.84112757  0.16276620    -0.37400
O2873       O  0.44884184  0.72213324  0.24341726    -0.38300
O2874       O  0.42707392  0.72769437  0.20286787    -0.34400
O2875       O  0.56788228  0.79305753  0.19638196    -0.35800
O2876       O  0.54685208  0.80428595  0.15645669    -0.40100
C2877       C  0.64636986  0.10011991  0.08058302    -0.13800
C2878       C  0.61873295  0.11072385  0.08483723     0.16600
C2879       C  0.60982210  0.13411464  0.06800872     0.02900
C2880       C  0.62873691  0.14698080  0.04848154    -0.12300
C2881       C  0.65630375  0.13645190  0.04410070    -0.03400
C2882       C  0.66494684  0.11237276  0.06007857     0.02100
C2883       C  0.60075470  0.09860008  0.10847283     0.09000
N2884       N  0.58186220  0.14558385  0.07065849     0.65300
H2885       H  0.62161346  0.16533662  0.03629703     0.18200
N2886       N  0.69274920  0.10072873  0.05664436     0.75800
H2887       H  0.65364212  0.08229654  0.09344505     0.09700
C2888       C  0.57682344  0.08053188  0.10337172     0.03400
C2889       C  0.56133951  0.06879455  0.12640255    -0.05300
C2890       C  0.56906086  0.07428582  0.15509053    -0.23700
C2891       C  0.59331562  0.09248307  0.16009163     0.12700
C2892       C  0.60865813  0.10431746  0.13690787    -0.12800
N2893       N  0.56854957  0.07268717  0.07497442     0.64400
H2894       H  0.54322901  0.05484457  0.12153075     0.12200
N2895       N  0.60327843  0.09890118  0.18835081     0.61000
H2896       H  0.62718665  0.11794539  0.14118608     0.08400
O2897       O  0.69538082  0.07793993  0.04244863    -0.40500
O2898       O  0.71248281  0.10836211  0.07361374    -0.39600
O2899       O  0.57881503  0.16828164  0.08489317    -0.39600
O2900       O  0.56334325  0.13907028  0.05197163    -0.37400
O2901       O  0.62334573  0.08441370  0.19878020    -0.38300
O2902       O  0.59813424  0.12315663  0.19890677    -0.34400
O2903       O  0.57776889  0.04963480  0.06469423    -0.35800
O2904       O  0.54619553  0.08323629  0.06444789    -0.40100
C2905       C  0.59084387  0.90540361  0.13493231    -0.13800
C2906       C  0.60017531  0.92285106  0.11212826     0.16600
C2907       C  0.59134851  0.95162307  0.11108706     0.02900
C2908       C  0.57431818  0.96251248  0.13295372    -0.12300
C2909       C  0.56533151  0.94529063  0.15597241    -0.03400
C2910       C  0.57347019  0.91624426  0.15669232     0.02100
C2911       C  0.61668596  0.90963618  0.08855504     0.09000
N2912       N  0.59789715  0.96972667  0.08724169     0.65300
H2913       H  0.56802240  0.98475840  0.13184785     0.18200
N2914       N  0.56304053  0.89705415  0.17829377     0.75800
H2915       H  0.59667877  0.88301172  0.13555008     0.09700
C2916       C  0.64525773  0.91765852  0.08227719     0.03400
C2917       C  0.65989496  0.90371807  0.06031691    -0.05300
C2918       C  0.64697337  0.88124701  0.04487536    -0.23700
C2919       C  0.61843563  0.87313027  0.05120078     0.12700
C2920       C  0.60363111  0.88743588  0.07275310    -0.12800
N2921       N  0.66049800  0.93839306  0.09914299     0.64400
H2922       H  0.68197983  0.90970486  0.05612038     0.12200
N2923       N  0.60377098  0.85109309  0.03544661     0.61000
H2924       H  0.58172708  0.88104671  0.07730712     0.08400
O2925       O  0.54107721  0.88179225  0.17315805    -0.40500
O2926       O  0.57950746  0.88991494  0.19841270    -0.39600
O2927       O  0.58021956  0.97078923  0.06682972    -0.39600
O2928       O  0.61522380  0.99046032  0.09076480    -0.37400
O2929       O  0.58631846  0.85820944  0.01616216    -0.38300
O2930       O  0.60187635  0.82620846  0.04600639    -0.34400
O2931       O  0.67503740  0.92978475  0.12016421    -0.35800
O2932       O  0.66674225  0.96239546  0.08812445    -0.40100
C2933       C  0.38876483  0.91129873  0.13958036    -0.13800
C2934       C  0.39579552  0.91860964  0.11138943     0.16600
C2935       C  0.41853805  0.93787289  0.10619022     0.02900
C2936       C  0.43364518  0.94984566  0.12916186    -0.12300
C2937       C  0.42659760  0.94313573  0.15776368    -0.03400
C2938       C  0.40388796  0.92319644  0.16276826     0.02100
C2939       C  0.37813159  0.90687125  0.08789497     0.09000
N2940       N  0.42625232  0.94602232  0.07773133     0.65300
H2941       H  0.45092122  0.96480109  0.12428268     0.18200
N2942       N  0.39562625  0.91473291  0.19098270     0.75800
H2943       H  0.37115166  0.89644279  0.14361582     0.09700
C2944       C  0.38530006  0.88129529  0.07411468     0.03400
C2945       C  0.36656275  0.86916009  0.05413798    -0.05300
C2946       C  0.34037483  0.88191292  0.04741111    -0.23700
C2947       C  0.33384836  0.90851945  0.06031598     0.12700
C2948       C  0.35266059  0.92046010  0.08065309    -0.12800
N2949       N  0.41118892  0.86688398  0.08065772     0.64400
H2950       H  0.37271004  0.84943308  0.04380397     0.12200
N2951       N  0.30822364  0.92354198  0.05394160     0.61000
H2952       H  0.34714549  0.94028739  0.09121019     0.08400
O2953       O  0.40220092  0.89013675  0.19987432    -0.40500
O2954       O  0.37575959  0.92788754  0.20322076    -0.39600
O2955       O  0.41897279  0.97025801  0.06844818    -0.39600
O2956       O  0.44621811  0.93307003  0.06545362    -0.37400
O2957       O  0.28867872  0.92365464  0.07243037    -0.38300
O2958       O  0.30952178  0.94395955  0.03620966    -0.34400
O2959       O  0.41009556  0.84469511  0.09612766    -0.35800
O2960       O  0.43267455  0.87114037  0.06489004    -0.40100
C2961       C  0.39181573  0.11002703  0.14170065    -0.13800
C2962       C  0.38920318  0.09729549  0.11469224     0.16600
C2963       C  0.40469627  0.07234875  0.10883963     0.02900
C2964       C  0.42174002  0.06013782  0.13024446    -0.12300
C2965       C  0.42441601  0.07277951  0.15746427    -0.03400
C2966       C  0.40942928  0.09837663  0.16287267     0.02100
C2967       C  0.37326342  0.11274713  0.09214369     0.09000
N2968       N  0.40496122  0.06024906  0.08078968     0.65300
H2969       H  0.43323203  0.04079265  0.12532324     0.18200
N2970       N  0.41331394  0.11405724  0.18887499     0.75800
H2971       H  0.38088118  0.12986112  0.14603122     0.09700
C2972       C  0.34655526  0.10303168  0.08150492     0.03400
C2973       C  0.33213781  0.11927148  0.06095759    -0.05300
C2974       C  0.34373208  0.14521305  0.05074993    -0.23700
C2975       C  0.37049386  0.15499491  0.06151060     0.12700
C2976       C  0.38479118  0.13878156  0.08211480    -0.12800
N2977       N  0.33332311  0.07719921  0.09173192     0.64400
H2978       H  0.31158558  0.11160150  0.05304970     0.12200
N2979       N  0.38443078  0.18025000  0.05060998     0.61000
H2980       H  0.40532560  0.14640864  0.09012471     0.08400
O2981       O  0.39335402  0.11420741  0.20695022    -0.40500
O2982       O  0.43258242  0.13330210  0.19006242    -0.39600
O2983       O  0.42387805  0.06863689  0.06336186    -0.39600
O2984       O  0.39205434  0.03669532  0.07633531    -0.37400
O2985       O  0.40367082  0.17759041  0.03200547    -0.38300
O2986       O  0.38386440  0.20301858  0.06513816    -0.34400
O2987       O  0.31395510  0.07891228  0.11033246    -0.35800
O2988       O  0.33427049  0.05501433  0.07637911    -0.40100
C2989       C  0.75074669  0.23738696  0.47790268    -0.13800
C2990       C  0.76862953  0.22296080  0.49693662     0.16600
C2991       C  0.75651817  0.20402958  0.51706127     0.02900
C2992       C  0.72699963  0.19999912  0.51814844    -0.12300
C2993       C  0.70841813  0.21481081  0.49968450    -0.03400
C2994       C  0.72096781  0.23368556  0.47910272     0.02100
C2995       C  0.79949261  0.23008191  0.49751226     0.09000
N2996       N  0.77390295  0.18852650  0.53673803     0.65300
H2997       H  0.71952171  0.18517151  0.53411878     0.18200
N2998       N  0.70397274  0.24947160  0.45926594     0.75800
H2999       H  0.75991576  0.25234514  0.46255712     0.09700
C3000       C  0.81735135  0.22469579  0.47406159     0.03400
C3001       C  0.84621809  0.23282080  0.47530201    -0.05300
C3002       C  0.85809642  0.24569250  0.49994931    -0.23700
C3003       C  0.83996436  0.25089344  0.52353553     0.12700
C3004       C  0.81094336  0.24345073  0.52186366    -0.12800
N3005       N  0.80698914  0.20940314  0.44957003     0.64400
H3006       H  0.85961049  0.22791007  0.45715114     0.12200
N3007       N  0.85033186  0.26371313  0.54937324     0.61000
H3008       H  0.79720529  0.24808234  0.53984181     0.08400
O3009       O  0.69740686  0.27488405  0.46530362    -0.40500
O3010       O  0.70333181  0.24169947  0.43341506    -0.39600
O3011       O  0.77504277  0.19650680  0.56251322    -0.39600
O3012       O  0.78072752  0.16321530  0.53061592    -0.37400
O3013       O  0.84582768  0.28994345  0.55367609    -0.38300
O3014       O  0.85562937  0.24773577  0.57049270    -0.34400
O3015       O  0.80392362  0.22260607  0.42620305    -0.35800
O3016       O  0.80825856  0.18239317  0.44938992    -0.40100
C3017       C  0.59457701  0.12108344  0.36403789    -0.13800
C3018       C  0.57976653  0.12295098  0.38992909     0.16600
C3019       C  0.55395015  0.10747662  0.39320511     0.02900
C3020       C  0.54382963  0.08978560  0.37113223    -0.12300
C3021       C  0.55881224  0.08727722  0.34523487    -0.03400
C3022       C  0.58429300  0.10376685  0.34162067     0.02100
C3023       C  0.59187275  0.14104185  0.41318700     0.09000
N3024       N  0.53789138  0.10915782  0.41899289     0.65300
H3025       H  0.52391342  0.07803211  0.37435807     0.18200
N3026       N  0.60069388  0.10260816  0.31595923     0.75800
H3027       H  0.61432888  0.13323323  0.36119514     0.09700
C3028       C  0.61789994  0.13401901  0.42637456     0.03400
C3029       C  0.63039485  0.15267042  0.44628609    -0.05300
C3030       C  0.61749345  0.17858649  0.45371859    -0.23700
C3031       C  0.59065446  0.18502923  0.44148080     0.12700
C3032       C  0.57827983  0.16638624  0.42112208    -0.12800
N3033       N  0.63158651  0.10757367  0.42037387     0.64400
H3034       H  0.65030795  0.14655966  0.45632094     0.12200
N3035       N  0.57601871  0.21064060  0.44858981     0.61000
H3036       H  0.55822929  0.17199682  0.41105778     0.08400
O3037       O  0.62472008  0.09078782  0.31680613    -0.40500
O3038       O  0.59575442  0.12042908  0.29627441    -0.39600
O3039       O  0.51632938  0.12496586  0.41965077    -0.39600
O3040       O  0.54075968  0.09003750  0.43786047    -0.37400
O3041       O  0.57784404  0.23179989  0.43179116    -0.38300
O3042       O  0.55522742  0.20902568  0.46567532    -0.34400
O3043       O  0.65442974  0.10788028  0.40610866    -0.35800
O3044       O  0.62525067  0.08575632  0.43520381    -0.40100
C3045       C  0.59180555  0.36376384  0.51106168    -0.13800
C3046       C  0.57772982  0.34330177  0.52785535     0.16600
C3047       C  0.55650634  0.35188601  0.54714323     0.02900
C3048       C  0.54824972  0.38081463  0.54782498    -0.12300
C3049       C  0.56106958  0.40110090  0.52927720    -0.03400
C3050       C  0.58354155  0.39228722  0.51131715     0.02100
C3051       C  0.58671248  0.31328542  0.52545582     0.09000
N3052       N  0.54213447  0.33103836  0.56464237     0.65300
H3053       H  0.53040982  0.38690475  0.56108738     0.18200
N3054       N  0.59670602  0.41153189  0.49133062     0.75800
H3055       H  0.60872732  0.35731735  0.49677595     0.09700
C3056       C  0.58255655  0.29760859  0.49992400     0.03400
C3057       C  0.59589889  0.27129276  0.49648912    -0.05300
C3058       C  0.61387612  0.26065438  0.51776230    -0.23700
C3059       C  0.61704732  0.27571258  0.54379103     0.12700
C3060       C  0.60325562  0.30176740  0.54749003    -0.12800
N3061       N  0.56627102  0.30883758  0.47666785     0.64400
H3062       H  0.59381845  0.26013794  0.47633258     0.12200
N3063       N  0.63489131  0.26539935  0.56629424     0.61000
H3064       H  0.60681580  0.31384890  0.56701320     0.08400
O3065       O  0.62145163  0.42126650  0.49675641    -0.40500
O3066       O  0.58808217  0.41124073  0.46571186    -0.39600
O3067       O  0.55161311  0.32600743  0.58942145    -0.39600
O3068       O  0.52519369  0.31312892  0.55310827    -0.37400
O3069       O  0.65979852  0.27585819  0.56907586    -0.38300
O3070       O  0.62341180  0.25278819  0.58732857    -0.34400
O3071       O  0.57917901  0.32118230  0.45630376    -0.35800
O3072       O  0.54106049  0.29962545  0.47273796    -0.40100
C3073       C  0.25408829  0.03211365  0.71817331    -0.13800
C3074       C  0.26841198  0.00627777  0.71509015     0.16600
C3075       C  0.25320851  0.98183957  0.70574894     0.02900
C3076       C  0.22414074  0.98364065  0.69905932    -0.12300
C3077       C  0.20938251  0.00972491  0.70123427    -0.03400
C3078       C  0.22492087  0.03408386  0.71176597     0.02100
C3079       C  0.29929689  0.00540200  0.72168312     0.09000
N3080       N  0.26696535  0.95488066  0.70301928     0.65300
H3081       H  0.21339200  0.96391288  0.69314996     0.18200
N3082       N  0.21164281  0.06105842  0.71644937     0.75800
H3083       H  0.26564024  0.05093164  0.72589954     0.09700
C3084       C  0.31936006  0.01907886  0.70371163     0.03400
C3085       C  0.34839881  0.01952859  0.71124033    -0.05300
C3086       C  0.35787898  0.00611902  0.73644933    -0.23700
C3087       C  0.33758505  0.99261162  0.75449310     0.12700
C3088       C  0.30854653  0.99239638  0.74698882    -0.12800
N3089       N  0.31036406  0.03232200  0.67765307     0.64400
H3090       H  0.36369478  0.02993564  0.69709003     0.12200
N3091       N  0.34569487  0.98048217  0.78127740     0.61000
H3092       H  0.29305162  0.98251968  0.76127875     0.08400
O3093       O  0.21634864  0.08118544  0.69890246    -0.40500
O3094       O  0.20375741  0.06725633  0.74144299    -0.39600
O3095       O  0.26571109  0.93722454  0.72348061    -0.39600
O3096       O  0.27397619  0.94622901  0.67850404    -0.37400
O3097       O  0.34280191  0.99532490  0.80355821    -0.38300
O3098       O  0.34615525  0.95356572  0.78363021    -0.34400
O3099       O  0.30172839  0.01686005  0.65712335    -0.35800
O3100       O  0.30546533  0.05884315  0.67732423    -0.40100
C3101       C  0.67360595  0.03417165  0.73209087    -0.13800
C3102       C  0.68155317  0.01170105  0.71394954     0.16600
C3103       C  0.66132261  0.99007531  0.70712284     0.02900
C3104       C  0.63382524  0.99125376  0.71822868    -0.12300
C3105       C  0.62555668  0.01369395  0.73624729    -0.03400
C3106       C  0.64581825  0.03545688  0.74319664     0.02100
C3107       C  0.71163637  0.00957756  0.70463825     0.09000
N3108       N  0.66809280  0.96695000  0.68844687     0.65300
H3109       H  0.61855515  0.97466594  0.71192650     0.18200
N3110       N  0.63914875  0.05817462  0.76239644     0.75800
H3111       H  0.68927301  0.05040278  0.73828739     0.09700
C3112       C  0.72547588  0.03160336  0.68917302     0.03400
C3113       C  0.75444914  0.02951884  0.68266245    -0.05300
C3114       C  0.77082553  0.00610619  0.69199146    -0.23700
C3115       C  0.75627998  0.98344914  0.70668571     0.12700
C3116       C  0.72716534  0.98553804  0.71283258    -0.12800
N3117       N  0.71067027  0.05665310  0.68025301     0.64400
H3118       H  0.76357149  0.04726383  0.67100148     0.12200
N3119       N  0.77080007  0.95864607  0.71684066     0.61000
H3120       H  0.71684304  0.96860498  0.72513165     0.08400
O3121       O  0.63446585  0.08279396  0.75236493    -0.40500
O3122       O  0.64587150  0.05576301  0.78845608    -0.39600
O3123       O  0.67123645  0.94222064  0.69888303    -0.39600
O3124       O  0.66289997  0.96944071  0.66205750    -0.37400
O3125       O  0.77718489  0.95706586  0.74305817    -0.38300
O3126       O  0.76838274  0.93571157  0.70269931    -0.34400
O3127       O  0.71501929  0.07979979  0.69366878    -0.35800
O3128       O  0.70082501  0.05768458  0.65511218    -0.40100
C3129       C  0.40087298  0.12297385  0.63835816    -0.13800
C3130       C  0.39881631  0.11117670  0.61086310     0.16600
C3131       C  0.41166310  0.08465128  0.60542806     0.02900
C3132       C  0.42577109  0.07025110  0.62747111    -0.12300
C3133       C  0.42770305  0.08171487  0.65520534    -0.03400
C3134       C  0.41511065  0.10869917  0.66049448     0.02100
C3135       C  0.38503355  0.12816326  0.58798687     0.09000
N3136       N  0.41179943  0.07248414  0.57742415     0.65300
H3137       H  0.43529886  0.04980697  0.62267247     0.18200
N3138       N  0.41716620  0.12251546  0.68774213     0.75800
H3139       H  0.39157592  0.14367260  0.64259735     0.09700
C3140       C  0.35829510  0.12026400  0.57611114     0.03400
C3141       C  0.34546117  0.13805034  0.55582931    -0.05300
C3142       C  0.35855575  0.16394571  0.54722094    -0.23700
C3143       C  0.38524210  0.17195032  0.55927563     0.12700
C3144       C  0.39816527  0.15403586  0.57944048    -0.12800
N3145       N  0.34315882  0.09504646  0.58528927     0.64400
H3146       H  0.32510934  0.13142028  0.54663118     0.12200
N3147       N  0.39893851  0.19871160  0.55240368     0.61000
H3148       H  0.41843315  0.16059812  0.58888886     0.08400
O3149       O  0.39576737  0.12176842  0.70409812    -0.40500
O3150       O  0.43611545  0.14175216  0.69149749    -0.39600
O3151       O  0.43329927  0.07701336  0.56173742    -0.39600
O3152       O  0.39596272  0.05089439  0.57240913    -0.37400
O3153       O  0.39363892  0.22047062  0.56736479    -0.38300
O3154       O  0.42117840  0.19880215  0.53720928    -0.34400
O3155       O  0.32480315  0.09726465  0.60483320    -0.35800
O3156       O  0.34155529  0.07380095  0.56864848    -0.40100
C3157       C  0.59427183  0.11462096  0.63697772    -0.13800
C3158       C  0.57918063  0.11782535  0.61130679     0.16600
C3159       C  0.55307997  0.10300422  0.60728018     0.02900
C3160       C  0.54230221  0.08549670  0.62904656    -0.12300
C3161       C  0.55700893  0.08246302  0.65511448    -0.03400
C3162       C  0.58345267  0.09721816  0.65895832     0.02100
C3163       C  0.59215061  0.13522505  0.58839094     0.09000
N3164       N  0.53724883  0.10534799  0.58122410     0.65300
H3165       H  0.52191861  0.07462453  0.62560193     0.18200
N3166       N  0.59995273  0.09443609  0.68457305     0.75800
H3167       H  0.61468880  0.12560298  0.63987816     0.09700
C3168       C  0.58518601  0.16419334  0.58439835     0.03400
C3169       C  0.59896247  0.18025705  0.56308136    -0.05300
C3170       C  0.62025647  0.16805288  0.54622978    -0.23700
C3171       C  0.62749736  0.13907213  0.55060661     0.12700
C3172       C  0.61320114  0.12289421  0.57144960    -0.12800
N3173       N  0.56527157  0.17793479  0.60270506     0.64400
H3174       H  0.59375206  0.20266508  0.56039904     0.12200
N3175       N  0.64886258  0.12555068  0.53380625     0.61000
H3176       H  0.61880307  0.10065771  0.57470520     0.08400
O3177       O  0.60032625  0.11478582  0.70234153    -0.40500
O3178       O  0.61967940  0.07633058  0.68537510    -0.39600
O3179       O  0.53884696  0.08556021  0.56294560    -0.39600
O3180       O  0.51627553  0.12197320  0.58029818    -0.37400
O3181       O  0.64122171  0.11082014  0.51240043    -0.38300
O3182       O  0.67333218  0.12183644  0.54450358    -0.34400
O3183       O  0.57432449  0.19035172  0.62502054    -0.35800
O3184       O  0.54072199  0.18363229  0.59326252    -0.40100
C3185       C  0.57922278  0.93428748  0.60727426    -0.13800
C3186       C  0.58227762  0.90478674  0.61228622     0.16600
C3187       C  0.57270209  0.89347422  0.63883100     0.02900
C3188       C  0.56085975  0.91161376  0.65938388    -0.12300
C3189       C  0.55718854  0.94094829  0.65400373    -0.03400
C3190       C  0.56621877  0.95215823  0.62732555     0.02100
C3191       C  0.59716261  0.88684648  0.59050185     0.09000
N3192       N  0.57374911  0.86347162  0.64504360     0.65300
H3193       H  0.55354037  0.90237825  0.67941538     0.18200
N3194       N  0.56299585  0.98174491  0.62029041     0.75800
H3195       H  0.58744237  0.94383812  0.58780263     0.09700
C3196       C  0.59104084  0.88858867  0.56083064     0.03400
C3197       C  0.60658938  0.87240032  0.54131213    -0.05300
C3198       C  0.62773607  0.85338276  0.55032612    -0.23700
C3199       C  0.63364105  0.85128383  0.57995100     0.12700
C3200       C  0.61903989  0.86854066  0.59940786    -0.12800
N3201       N  0.56846326  0.90578958  0.54991601     0.64400
H3202       H  0.60165837  0.87464803  0.51877040     0.12200
N3203       N  0.65264728  0.83035256  0.59111569     0.61000
H3204       H  0.62492188  0.86740973  0.62177510     0.08400
O3205       O  0.54215872  0.98895833  0.60480913    -0.40500
O3206       O  0.58435737  0.99850515  0.62239236    -0.39600
O3207       O  0.59139391  0.85472841  0.66345428    -0.39600
O3208       O  0.55249284  0.84770149  0.63867022    -0.37400
O3209       O  0.64215709  0.80745626  0.60135542    -0.38300
O3210       O  0.67746485  0.83818030  0.59875035    -0.34400
O3211       O  0.57481100  0.92847701  0.53642253    -0.35800
O3212       O  0.54428706  0.89412404  0.54568235    -0.40100
C3213       C  0.40905040  0.85276550  0.57870816    -0.13800
C3214       C  0.39588564  0.87835405  0.58673721     0.16600
C3215       C  0.37052323  0.88618781  0.57255843     0.02900
C3216       C  0.35808061  0.86789313  0.55205463    -0.12300
C3217       C  0.37066561  0.84187375  0.54447440    -0.03400
C3218       C  0.39692459  0.83467233  0.55762924     0.02100
C3219       C  0.40937462  0.89695998  0.60921090     0.09000
N3220       N  0.35795587  0.91343034  0.57738833     0.65300
H3221       H  0.33861848  0.87446888  0.54144816     0.18200
N3222       N  0.41102554  0.80860042  0.55100648     0.75800
H3223       H  0.42880556  0.84666301  0.58906213     0.09700
C3224       C  0.39707955  0.90028002  0.63651576     0.03400
C3225       C  0.41018981  0.91835484  0.65684354    -0.05300
C3226       C  0.43586055  0.93331096  0.65097415    -0.23700
C3227       C  0.44880745  0.92898978  0.62390214     0.12700
C3228       C  0.43543423  0.91108485  0.60344710    -0.12800
N3229       N  0.37196241  0.88447543  0.64458719     0.64400
H3230       H  0.40001398  0.92067154  0.67748042     0.12200
N3231       N  0.47608706  0.94139417  0.61709887     0.61000
H3232       H  0.44557267  0.90810060  0.58287335     0.08400
O3233       O  0.40833729  0.78769146  0.56799037    -0.40500
O3234       O  0.43221444  0.80948131  0.53437857    -0.39600
O3235       O  0.36635312  0.93457504  0.56257624    -0.39600
O3236       O  0.33388382  0.91439709  0.58937457    -0.37400
O3237       O  0.49809608  0.92646061  0.62039825    -0.38300
O3238       O  0.47726502  0.96282291  0.60059874    -0.34400
O3239       O  0.37472502  0.86167254  0.65883245    -0.35800
O3240       O  0.34841760  0.89720953  0.64536629    -0.40100
C3241       C  0.51099928  0.19168159  0.76012715    -0.13800
C3242       C  0.48826162  0.20171944  0.77684435     0.16600
C3243       C  0.46552014  0.18246402  0.78353080     0.02900
C3244       C  0.46639495  0.15400862  0.77448882    -0.12300
C3245       C  0.48941217  0.14379323  0.75863516    -0.03400
C3246       C  0.51171578  0.16301605  0.75095790     0.02100
C3247       C  0.48769761  0.23255813  0.78543643     0.09000
N3248       N  0.44160749  0.19093205  0.80025279     0.65300
H3249       H  0.44917615  0.13954569  0.78088020     0.18200
N3250       N  0.53474590  0.15391435  0.73327767     0.75800
H3251       H  0.52793390  0.20632772  0.75352385     0.09700
C3252       C  0.51083548  0.24634001  0.79954814     0.03400
C3253       C  0.50985415  0.27570466  0.80592757    -0.05300
C3254       C  0.48614407  0.29244851  0.79847009    -0.23700
C3255       C  0.46276032  0.27816989  0.78454912     0.12700
C3256       C  0.46397887  0.24888506  0.77809729    -0.12800
N3257       N  0.53561249  0.23089620  0.80789636     0.64400
H3258       H  0.52832505  0.28489987  0.81643140     0.12200
N3259       N  0.43808864  0.29319710  0.77507033     0.61000
H3260       H  0.44640450  0.23904327  0.76634678     0.08400
O3261       O  0.55877247  0.14893726  0.74438351    -0.40500
O3262       O  0.52990026  0.14654177  0.70771370    -0.39600
O3263       O  0.41814081  0.19519897  0.78767338    -0.39600
O3264       O  0.44128200  0.18461474  0.82651397    -0.37400
O3265       O  0.43456399  0.29674808  0.74852188    -0.38300
O3266       O  0.41650367  0.29374704  0.79114982    -0.34400
O3267       O  0.55811255  0.23375366  0.79328551    -0.35800
O3268       O  0.53748592  0.22198220  0.83332300    -0.40100
C3269       C  0.50571931  0.83798632  0.79647597    -0.13800
C3270       C  0.50126449  0.81761912  0.77481745     0.16600
C3271       C  0.49388693  0.82728617  0.74693723     0.02900
C3272       C  0.49145395  0.85665381  0.74145766    -0.12300
C3273       C  0.49625593  0.87667226  0.76314540    -0.03400
C3274       C  0.50348115  0.86726826  0.79083183     0.02100
C3275       C  0.50117960  0.78665804  0.78258028     0.09000
N3276       N  0.48876169  0.80777394  0.72385237     0.65300
H3277       H  0.48604391  0.86386661  0.72007603     0.18200
N3278       N  0.50742832  0.88712126  0.81378457     0.75800
H3279       H  0.50984217  0.83118519  0.81823093     0.09700
C3280       C  0.52323653  0.77395151  0.79874721     0.03400
C3281       C  0.52144387  0.74476891  0.80583900    -0.05300
C3282       C  0.49795489  0.72740816  0.79729003    -0.23700
C3283       C  0.47555908  0.74073439  0.78185395     0.12700
C3284       C  0.47721664  0.76990190  0.77533146    -0.12800
N3285       N  0.54792551  0.79003421  0.80788095     0.64400
H3286       H  0.53928631  0.73611462  0.81736776     0.12200
N3287       N  0.45083180  0.72508660  0.77218221     0.61000
H3288       H  0.45921922  0.77956730  0.76465179     0.08400
O3289       O  0.53240180  0.89245453  0.82278665    -0.40500
O3290       O  0.48640329  0.89284145  0.82947579    -0.39600
O3291       O  0.46334123  0.80311153  0.71574653    -0.39600
O3292       O  0.50883509  0.80284766  0.70669928    -0.37400
O3293       O  0.44939680  0.71781920  0.74621640    -0.38300
O3294       O  0.42792001  0.72715660  0.78613323    -0.34400
O3295       O  0.55022825  0.79685215  0.83393082    -0.35800
O3296       O  0.57015248  0.78963540  0.79270125    -0.40100
C3297       C  0.38168731  0.09112454  0.86755246    -0.13800
C3298       C  0.39780917  0.10583851  0.88831520     0.16600
C3299       C  0.42789924  0.10421953  0.88782892     0.02900
C3300       C  0.44121837  0.08908022  0.86589882    -0.12300
C3301       C  0.42499617  0.07478577  0.84484097    -0.03400
C3302       C  0.39499016  0.07538020  0.84615806     0.02100
C3303       C  0.38239598  0.12095100  0.91116113     0.09000
N3304       N  0.44520640  0.11741202  0.90953529     0.65300
H3305       H  0.46435820  0.08834254  0.86541326     0.18200
N3306       N  0.37782931  0.05714925  0.82840748     0.75800
H3307       H  0.35855061  0.09082290  0.86871771     0.09700
C3308       C  0.36331126  0.14308792  0.90463498     0.03400
C3309       C  0.34710335  0.15520900  0.92625732    -0.05300
C3310       C  0.34963986  0.14608154  0.95470919    -0.23700
C3311       C  0.36876316  0.12376877  0.96135498     0.12700
C3312       C  0.38474915  0.11136449  0.93948205    -0.12800
N3313       N  0.36045195  0.15398202  0.87621524     0.64400
H3314       H  0.33231659  0.17196247  0.92062996     0.12200
N3315       N  0.37345865  0.11425726  0.99006615     0.61000
H3316       H  0.39889004  0.09392374  0.94463497     0.08400
O3317       O  0.36373457  0.06787420  0.80809549    -0.40500
O3318       O  0.37087353  0.03263581  0.83776096    -0.39600
O3319       O  0.45455989  0.10215340  0.92971826    -0.39600
O3320       O  0.45707844  0.14138495  0.90452969    -0.37400
O3321       O  0.39544810  0.12329821  0.00314442    -0.38300
O3322       O  0.36185218  0.09101863  0.99818656    -0.34400
O3323       O  0.33860282  0.14698967  0.86175432    -0.35800
O3324       O  0.37454355  0.17622242  0.86928650    -0.40100
C3325       C  0.38267446  0.90984913  0.85992640    -0.13800
C3326       C  0.38232260  0.92304232  0.88685044     0.16600
C3327       C  0.40096433  0.94654555  0.89197903     0.02900
C3328       C  0.41870208  0.95700302  0.87013539    -0.12300
C3329       C  0.41900012  0.94420896  0.84288132    -0.03400
C3330       C  0.40096705  0.91984074  0.83812684     0.02100
C3331       C  0.36491532  0.90996078  0.91020347     0.09000
N3332       N  0.40212282  0.96025124  0.91927369     0.65300
H3333       H  0.43221903  0.97554801  0.87469433     0.18200
N3334       N  0.40193974  0.90390543  0.81206068     0.75800
H3335       H  0.36931232  0.89101413  0.85609906     0.09700
C3336       C  0.33470940  0.91033163  0.91022259     0.03400
C3337       C  0.31935244  0.89668745  0.93231171    -0.05300
C3338       C  0.33354547  0.88177174  0.95397154    -0.23700
C3339       C  0.36370973  0.88088014  0.95362077     0.12700
C3340       C  0.37903845  0.89525792  0.93209547    -0.12800
N3341       N  0.31924716  0.92413614  0.88787499     0.64400
H3342       H  0.29619890  0.89711172  0.93213721     0.12200
N3343       N  0.37918214  0.86515659  0.97467986     0.61000
H3344       H  0.40216464  0.89422325  0.93199538     0.08400
O3345       O  0.38261531  0.90735373  0.79355370    -0.40500
O3346       O  0.41664209  0.88149090  0.81119358    -0.39600
O3347       O  0.42218090  0.95431037  0.93628698    -0.39600
O3348       O  0.38860285  0.98313657  0.92285323    -0.37400
O3349       O  0.38523820  0.83938418  0.96966621    -0.38300
O3350       O  0.39339209  0.87878543  0.99336660    -0.34400
O3351       O  0.30785756  0.90898269  0.86845471    -0.35800
O3352       O  0.31046615  0.94923740  0.89186022    -0.40100
C3353       C  0.63386415  0.88563821  0.90088636    -0.13800
C3354       C  0.61922417  0.91035239  0.90873946     0.16600
C3355       C  0.62133603  0.91980288  0.93738050     0.02900
C3356       C  0.63783735  0.90466529  0.95713498    -0.12300
C3357       C  0.65362773  0.88056906  0.94914127    -0.03400
C3358       C  0.65133432  0.87107754  0.92030575     0.02100
C3359       C  0.60059633  0.92462895  0.88718591     0.09000
N3360       N  0.60755513  0.94519101  0.94683457     0.65300
H3361       H  0.63779211  0.91199175  0.97906708     0.18200
N3362       N  0.66692680  0.84730306  0.90969008     0.75800
H3363       H  0.63164462  0.87729125  0.87937738     0.09700
C3364       C  0.61035282  0.93148932  0.85933869     0.03400
C3365       C  0.59161473  0.94311171  0.83922938    -0.05300
C3366       C  0.56301826  0.94848483  0.84598786    -0.23700
C3367       C  0.55314933  0.94152057  0.87379436     0.12700
C3368       C  0.57184884  0.92948257  0.89382906    -0.12800
N3369       N  0.63935967  0.92737508  0.85105446     0.64400
H3370       H  0.59982946  0.94851276  0.81820862     0.12200
N3371       N  0.52403839  0.94532310  0.88187396     0.61000
H3372       H  0.56352229  0.92315218  0.91451864     0.08400
O3373       O  0.65361247  0.82400216  0.90493678    -0.40500
O3374       O  0.68997302  0.85227269  0.89651120    -0.39600
O3375       O  0.58557553  0.94277320  0.96228182    -0.39600
O3376       O  0.62170114  0.96847144  0.94725156    -0.37400
O3377       O  0.51789544  0.96626582  0.89762879    -0.38300
O3378       O  0.50691146  0.92416806  0.88051422    -0.34400
O3379       O  0.64495242  0.90718325  0.83412746    -0.35800
O3380       O  0.65690518  0.94810182  0.85332516    -0.40100
C3381       C  0.59089115  0.11476842  0.86421867    -0.13800
C3382       C  0.60492849  0.09623436  0.88304507     0.16600
C3383       C  0.59812296  0.06665492  0.88232715     0.02900
C3384       C  0.57761676  0.05618334  0.86298622    -0.12300
C3385       C  0.56384472  0.07459016  0.84387390    -0.03400
C3386       C  0.57059371  0.10425203  0.84458185     0.02100
C3387       C  0.62375024  0.10875591  0.90547347     0.09000
N3388       N  0.61260483  0.04675354  0.90027360     0.65300
H3389       H  0.57317200  0.03329306  0.86222310     0.18200
N3390       N  0.55641806  0.12413775  0.82633059     0.75800
H3391       H  0.59526442  0.13765248  0.86520758     0.09700
C3392       C  0.64880373  0.12466286  0.89881570     0.03400
C3393       C  0.66385137  0.13914158  0.92052758    -0.05300
C3394       C  0.65448253  0.13792019  0.94892229    -0.23700
C3395       C  0.62936851  0.12218875  0.95553654     0.12700
C3396       C  0.61437972  0.10766014  0.93387720    -0.12800
N3397       N  0.65940386  0.12615597  0.87023392     0.64400
H3398       H  0.68298859  0.15140724  0.91519653     0.12200
N3399       N  0.61731117  0.12280246  0.98350944     0.61000
H3400       H  0.59454502  0.09650591  0.93906932     0.08400
O3401       O  0.56957849  0.13414562  0.80492407    -0.40500
O3402       O  0.53525963  0.13748068  0.83590325    -0.39600
O3403       O  0.59968588  0.03624408  0.92160244    -0.39600
O3404       O  0.63395720  0.03393200  0.89043149    -0.37400
O3405       O  0.59879873  0.14137156  0.98894158    -0.38300
O3406       O  0.61849036  0.10062953  0.99894525    -0.34400
O3407       O  0.65624399  0.14892892  0.85603714    -0.35800
O3408       O  0.67810188  0.10862072  0.86252278    -0.40100
loop_ 
_geom_bond_atom_site_label_1 
_geom_bond_atom_site_label_2 
_geom_bond_distance 
_geom_bond_site_symmetry_2 
_ccdc_geom_bond_type 
O1          Zr37   2.460       .  S
O1           C12   1.297       .  A
O2          Zr36   2.435       .  S
O2           C13   1.293       .  A
O3           Zr9   2.446       .  S
O3           C14   1.292       .  A
O4           Zr9   2.432       .  S
O4           C15   1.291       .  A
O5          Zr39   2.431       .  S
O5           C15   1.292       .  A
O6          Zr38   2.432       .  S
O6           C14   1.293   1_565  A
O7           Zr9   2.429       .  S
O7           C13   1.289       .  A
O8           Zr9   2.423       .  S
O8           C12   1.288       .  A
Zr9          O10   2.342       .  S
Zr9          O11   2.343       .  S
Zr9          O19   2.347       .  S
Zr9          O17   2.340       .  S
O10         Zr36   2.340       .  S
O10         Zr39   2.345       .  S
O11         Zr37   2.346       .  S
O11         Zr38   2.334   1_545  S
C12        C3385   1.476       .  S
C13        C3161   1.479       .  S
C14        C3105   1.481       .  S
C15        C3245   1.479       .  S
H16          O17   0.965       .  S
O17         Zr36   2.336       .  S
O17         Zr38   2.339   1_545  S
H18          O19   0.965       .  S
O19         Zr37   2.333       .  S
O19         Zr39   2.343       .  S
O20         Zr36   2.447   1_565  S
O20          C43   1.293       .  A
O21         Zr37   2.459   1_565  S
O21          C44   1.298       .  A
O22         Zr38   2.459       .  S
O22          C45   1.297       .  A
O23         Zr39   2.423       .  S
O23          C46   1.288       .  A
O24         Zr39   2.451       .  S
O24          C47   1.294       .  A
O25         Zr38   2.453       .  S
O25          C48   1.296       .  A
O26         Zr40   2.453       .  S
O26          C49   1.295       .  A
O27         Zr40   2.462       .  S
O27          C50   1.296   1_565  A
O28         Zr38   2.423       .  S
O28          C49   1.289       .  A
O29         Zr39   2.443       .  S
O29          C50   1.293       .  A
O30         Zr36   2.446   1_565  S
O30          C45   1.293       .  A
O31         Zr37   2.431   1_565  S
O31          C48   1.290       .  A
O32         Zr37   2.423       .  S
O32          C47   1.289       .  A
O33         Zr36   2.464       .  S
O33          C46   1.299       .  A
O34         Zr40   2.468       .  S
O34          C43   1.299       .  A
O35         Zr40   2.445       .  S
O35          C44   1.293       .  A
Zr36         O42   2.344   1_545  S
Zr36         O54   2.341       .  S
Zr37         O41   2.347       .  S
Zr37         O52   2.328   1_545  S
Zr38         O42   2.340       .  S
Zr38         O52   2.339       .  S
Zr39         O41   2.334       .  S
Zr39         O54   2.354       .  S
Zr40         O41   2.351   1_565  S
Zr40         O42   2.337       .  S
Zr40         O54   2.349   1_565  S
Zr40         O52   2.351       .  S
C43        C3226   1.501       .  S
C44        C3329   1.499       .  S
C45        C3189   1.490       .  S
C46        C3133   1.491       .  S
C47        C3301   1.472       .  S
C48        C3366   1.487       .  S
C49        C3273   1.463       .  S
C50        C3086   1.481       .  S
H51          O52   0.962       .  S
H53          O54   0.964       .  S
C55          C56   1.552       .  S
C55          C61   1.528       .  S
C55          C59   1.535       .  S
C55        C2993   1.537       .  S
C56          H63   1.077       .  S
C56          C57   1.361       .  D
C57          C58   1.532       .  S
C57        C3170   1.477       .  S
C58          C62   1.540       .  S
C58          C60   1.540       .  S
C58          H64   1.109       .  S
C59          H65   1.086       .  S
C59          C60   1.371       .  D
C60        C3030   1.492       .  S
C61          H66   1.086       .  S
C61          C62   1.362       .  D
C62        C3058   1.471       .  S
O67        Zr103   2.437       .  S
O67          C78   1.291       .  A
O68        Zr102   2.439       .  S
O68          C79   1.294       .  A
O69         Zr75   2.475       .  S
O69          C80   1.299       .  A
O70         Zr75   2.465   1_565  S
O70          C81   1.299       .  A
O71        Zr105   2.436       .  S
O71          C81   1.291       .  A
O72        Zr104   2.426       .  S
O72          C80   1.290       .  A
O73         Zr75   2.454   1_565  S
O73          C79   1.294       .  A
O74         Zr75   2.445       .  S
O74          C78   1.295       .  A
Zr75         O76   2.354   1_545  S
Zr75         O77   2.340       .  S
Zr75         O85   2.347       .  S
Zr75         O83   2.337       .  S
O76        Zr102   2.340       .  S
O76        Zr105   2.346       .  S
O77        Zr103   2.345       .  S
O77        Zr104   2.347       .  S
C78        C3021   1.490       .  S
C79        C2741   1.486       .  S
C80        C2806   1.481       .  S
C81        C2769   1.486       .  S
H82          O83   0.965       .  S
O83        Zr102   2.342   1_545  S
O83        Zr104   2.340       .  S
H84          O85   0.965       .  S
O85        Zr103   2.347       .  S
O85        Zr105   2.355   1_545  S
O86        Zr102   2.451       .  S
O86         C109   1.294       .  A
O87        Zr103   2.450       .  S
O87         C110   1.293       .  A
O88        Zr104   2.473       .  S
O88         C111   1.299       .  A
O89        Zr105   2.437       .  S
O89         C112   1.291       .  A
O90        Zr105   2.432       .  S
O90         C113   1.290   1_565  A
O91        Zr104   2.444       .  S
O91         C114   1.293       .  A
O92        Zr106   2.460       .  S
O92         C115   1.297       .  A
O93        Zr106   2.446   1_565  S
O93         C116   1.295       .  A
O94        Zr104   2.436       .  S
O94         C115   1.291       .  A
O95        Zr105   2.449       .  S
O95         C116   1.293       .  A
O96        Zr102   2.436       .  S
O96         C111   1.291   1_565  A
O97        Zr103   2.438       .  S
O97         C114   1.294       .  A
O98        Zr103   2.453       .  S
O98         C113   1.296       .  A
O99        Zr102   2.438       .  S
O99         C112   1.293       .  A
O100       Zr106   2.432   1_565  S
O100        C109   1.293       .  A
O101       Zr106   2.470       .  S
O101        C110   1.300       .  A
Zr102       O108   2.348   1_565  S
Zr102       O120   2.343       .  S
Zr103       O107   2.337       .  S
Zr103       O118   2.349       .  S
Zr104       O108   2.336       .  S
Zr104       O118   2.356       .  S
Zr105       O107   2.343   1_565  S
Zr105       O120   2.340       .  S
Zr106       O107   2.340       .  S
Zr106       O108   2.354       .  S
Zr106       O120   2.340   1_545  S
Zr106       O118   2.324       .  S
C109       C2937   1.494       .  S
C110       C2890   1.510       .  S
C111       C2694   1.485       .  S
C112       C2853   1.479       .  S
C113       C2713   1.482       .  S
C114       C2834   1.484       .  S
C115       C2965   1.493       .  S
C116       C2909   1.484       .  S
H117        O118   0.965       .  S
H119        O120   0.965       .  S
C121        C122   1.533   1_554  S
C121        C127   1.523       .  S
C121        C125   1.549       .  S
C121       C2638   1.527       .  S
C122        H129   1.086       .  S
C122        C123   1.361       .  D
C123        C124   1.544   1_556  S
C123       C3338   1.483       .  S
C124        C128   1.543       .  S
C124        C126   1.535       .  S
C124        H130   1.105       .  S
C125        H131   1.079       .  S
C125        C126   1.375       .  D
C126       C2946   1.490       .  S
C127        H132   1.087       .  S
C127        C128   1.354       .  D
C128       C2657   1.470       .  S
C133        C134   1.552       .  S
C133        C139   1.534       .  S
C133        C137   1.537   1_554  S
C133       C2582   1.537       .  S
C134        H141   1.078       .  S
C134        C135   1.362       .  D
C135        C136   1.535   1_554  S
C135       C2918   1.486       .  S
C136        C140   1.541   1_556  S
C136        C138   1.554       .  S
C136        H142   1.109       .  S
C137        H143   1.080       .  S
C137        C138   1.371       .  D
C138       C3357   1.505       .  S
C139        H144   1.084       .  S
C139        C140   1.362       .  D
C140       C2601   1.491       .  S
C145        C146   1.543       .  S
C145        C151   1.551       .  S
C145        C149   1.543       .  S
C145       C2517   1.547       .  S
C146        H153   1.085       .  S
C146        C147   1.366       .  D
C147        C148   1.537       .  S
C147       C2778   1.482       .  S
C148        C152   1.526       .  S
C148        C150   1.543       .  S
C148        H154   1.110       .  S
C149        H155   1.083       .  S
C149        C150   1.374       .  D
C150       C3198   1.494       .  S
C151        H156   1.081       .  S
C151        C152   1.358       .  D
C152       C2545   1.480       .  S
C157        C158   1.550       .  S
C157        C163   1.526   1_554  S
C157        C161   1.533   1_554  S
C157       C2461   1.538   1_554  S
C158        H165   1.079       .  S
C158        C159   1.365       .  D
C159        C160   1.538       .  S
C159       C2974   1.484       .  S
C160        C164   1.542   1_554  S
C160        C162   1.536   1_554  S
C160        H166   1.103       .  S
C161        H167   1.086       .  S
C161        C162   1.372       .  D
C162       C3310   1.482       .  S
C163        H168   1.085       .  S
C163        C164   1.365       .  D
C164       C2489   1.498       .  S
C169        C170   1.537       .  S
C169        C175   1.533       .  S
C169        C173   1.551   1_556  S
C169       C2405   1.548       .  S
C170        H177   1.086       .  S
C170        C171   1.367       .  D
C171        C172   1.539       .  S
C171       C3394   1.478       .  S
C172        C176   1.546       .  S
C172        C174   1.541   1_556  S
C172        H178   1.110       .  S
C173        H179   1.080       .  S
C173        C174   1.367       .  D
C174       C2881   1.495       .  S
C175        H180   1.085       .  S
C175        C176   1.368       .  D
C176       C2433   1.489       .  S
C181        C182   1.551       .  S
C181        C187   1.531       .  S
C181        C185   1.541       .  S
C181       C2358   1.543       .  S
C182        H189   1.082       .  S
C182        C183   1.367       .  D
C183        C184   1.528       .  S
C183       C2797   1.476       .  S
C184        C188   1.532       .  S
C184        C186   1.536       .  S
C184        H190   1.107       .  S
C185        H191   1.085       .  S
C185        C186   1.371       .  D
C186       C3142   1.485       .  S
C187        H192   1.086       .  S
C187        C188   1.366       .  D
C188       C2377   1.478       .  S
C193        C194   1.540       .  S
C193        C199   1.548       .  S
C193        C197   1.543       .  S
C193       C2293   1.552       .  S
C194        H201   1.086       .  S
C194        C195   1.374       .  D
C195        C196   1.544       .  S
C195       C3217   1.499       .  S
C196        C200   1.534       .  S
C196        C198   1.548       .  S
C196        H202   1.108       .  S
C197        H203   1.083       .  S
C197        C198   1.369       .  D
C198       C2750   1.494       .  S
C199        H204   1.078       .  S
C199        C200   1.357       .  D
C200       C2321   1.480       .  S
O205       Zr241   2.468       .  S
O205        C216   1.299       .  A
O206       Zr240   2.445       .  S
O206        C217   1.293   1_455  A
O207       Zr213   2.434       .  S
O207        C218   1.291       .  A
O208       Zr213   2.453       .  S
O208        C219   1.295       .  A
O209       Zr243   2.455       .  S
O209        C219   1.294       .  A
O210       Zr242   2.446       .  S
O210        C218   1.294       .  A
O211       Zr213   2.431       .  S
O211        C217   1.292       .  A
O212       Zr213   2.429       .  S
O212        C216   1.290       .  A
Zr213       O214   2.337       .  S
Zr213       O215   2.343       .  S
Zr213       O223   2.337       .  S
Zr213       O221   2.344       .  S
O214       Zr240   2.343   1_655  S
O214       Zr243   2.338       .  S
O215       Zr241   2.332       .  S
O215       Zr242   2.339       .  S
C216       C2526   1.494       .  S
C217       C2050   1.476       .  S
C218       C2134   1.473       .  S
C219       C2237   1.495       .  S
H220        O221   0.965       .  S
O221       Zr240   2.349   1_655  S
O221       Zr242   2.336       .  S
H222        O223   0.966       .  S
O223       Zr241   2.352       .  S
O223       Zr243   2.336       .  S
O224       Zr240   2.449       .  S
O224        C247   1.296       .  A
O225       Zr241   2.470       .  S
O225        C248   1.300       .  A
O226       Zr242   2.444   1_455  S
O226        C249   1.294       .  A
O227       Zr243   2.426   1_455  S
O227        C250   1.290       .  A
O228       Zr243   2.419       .  S
O228        C251   1.288       .  A
O229       Zr242   2.458       .  S
O229        C252   1.297       .  A
O230       Zr244   2.434       .  S
O230        C253   1.293       .  A
O231       Zr244   2.447       .  S
O231        C254   1.294       .  A
O232       Zr242   2.449   1_455  S
O232        C253   1.294       .  A
O233       Zr243   2.435   1_455  S
O233        C254   1.291       .  A
O234       Zr240   2.424       .  S
O234        C249   1.290       .  A
O235       Zr241   2.444       .  S
O235        C252   1.293       .  A
O236       Zr241   2.426       .  S
O236        C251   1.291       .  A
O237       Zr240   2.442       .  S
O237        C250   1.292       .  A
O238       Zr244   2.446       .  S
O238        C247   1.293       .  A
O239       Zr244   2.430       .  S
O239        C248   1.290   1_455  A
Zr240       O246   2.343       .  S
Zr240       O258   2.339       .  S
Zr241       O245   2.342       .  S
Zr241       O256   2.342       .  S
Zr242       O246   2.353   1_655  S
Zr242       O256   2.331       .  S
Zr243       O245   2.345       .  S
Zr243       O258   2.335   1_655  S
Zr244       O245   2.336   1_455  S
Zr244       O246   2.341       .  S
Zr244       O258   2.342       .  S
Zr244       O256   2.351   1_455  S
C247       C2302   1.499       .  S
C248       C2013   1.498       .  S
C249       C2097   1.477       .  S
C250       C2265   1.473       .  S
C251       C2218   1.456       .  S
C252       C2153   1.502       .  S
C253       C2069   1.491       .  S
C254       C2190   1.482       .  S
H255        O256   0.965       .  S
H257        O258   0.966       .  S
O259       Zr295   2.442       .  S
O259        C270   1.294       .  A
O260       Zr294   2.453       .  S
O260        C271   1.296   1_455  A
O261       Zr267   2.460       .  S
O261        C272   1.298       .  A
O262       Zr267   2.466       .  S
O262        C273   1.298       .  A
O263       Zr297   2.441       .  S
O263        C273   1.292       .  A
O264       Zr296   2.439       .  S
O264        C272   1.292       .  A
O265       Zr267   2.410       .  S
O265        C271   1.287       .  A
O266       Zr267   2.432       .  S
O266        C270   1.290       .  A
Zr267       O268   2.342       .  S
Zr267       O269   2.345       .  S
Zr267       O277   2.334       .  S
Zr267       O275   2.345       .  S
O268       Zr294   2.339   1_655  S
O268       Zr297   2.330       .  S
O269       Zr295   2.342       .  S
O269       Zr296   2.345       .  S
C270       C3002   1.487       .  S
C271       C1761   1.471       .  S
C272       C1938   1.487       .  S
C273       C1826   1.493       .  S
H274        O275   0.966       .  S
O275       Zr294   2.345   1_655  S
O275       Zr296   2.354       .  S
H276        O277   0.965       .  S
O277       Zr295   2.341       .  S
O277       Zr297   2.347       .  S
O278       Zr294   2.452       .  S
O278        C301   1.296       .  A
O279       Zr295   2.433       .  S
O279        C302   1.292       .  A
O280       Zr296   2.453   1_455  S
O280        C303   1.297       .  A
O281       Zr297   2.444   1_455  S
O281        C304   1.294       .  A
O282       Zr297   2.453       .  S
O282        C305   1.296       .  A
O283       Zr296   2.475       .  S
O283        C306   1.300       .  A
O284       Zr298   2.456       .  S
O284        C307   1.297       .  A
O285       Zr298   2.451       .  S
O285        C308   1.295       .  A
O286       Zr296   2.438   1_455  S
O286        C307   1.292       .  A
O287       Zr297   2.423   1_455  S
O287        C308   1.289       .  A
O288       Zr294   2.430       .  S
O288        C303   1.290       .  A
O289       Zr295   2.436       .  S
O289        C306   1.292       .  A
O290       Zr295   2.437       .  S
O290        C305   1.291       .  A
O291       Zr294   2.444       .  S
O291        C304   1.293       .  A
O292       Zr298   2.438       .  S
O292        C301   1.291       .  A
O293       Zr298   2.436       .  S
O293        C302   1.291   1_455  A
Zr294       O300   2.342       .  S
Zr294       O312   2.333       .  S
Zr295       O299   2.340       .  S
Zr295       O310   2.342       .  S
Zr296       O300   2.341   1_655  S
Zr296       O310   2.348       .  S
Zr297       O299   2.341       .  S
Zr297       O312   2.350   1_655  S
Zr298       O299   2.344   1_455  S
Zr298       O300   2.338       .  S
Zr298       O312   2.339       .  S
Zr298       O310   2.339   1_455  S
C301       C2349   1.487       .  S
C302       C1733   1.474       .  S
C303       C1910   1.492       .  S
C304       C1854   1.484       .  S
C305       C1789   1.497       .  S
C306       C1966   1.490       .  S
C307       C1985   1.498       .  S
C308       C1873   1.472       .  S
H309        O310   0.965       .  S
H311        O312   0.966       .  S
C313        C314   1.538       .  S
C313        C319   1.544       .  S
C313        C317   1.537       .  S
C313       C1677   1.545       .  S
C314        H321   1.086       .  S
C314        C315   1.371       .  D
C315        C316   1.543       .  S
C315       C1817   1.494       .  S
C316        C320   1.539       .  S
C316        C318   1.541       .  S
C316        H322   1.108       .  S
C317        H323   1.085       .  S
C317        C318   1.369       .  D
C318       C2125   1.483       .  S
C319        H324   1.080       .  S
C319        C320   1.359       .  D
C320       C1705   1.481       .  S
C325        C326   1.543       .  S
C325        C331   1.539       .  S
C325        C329   1.536       .  S
C325       C1621   1.539       .  S
C326        H333   1.083       .  S
C326        C327   1.372       .  D
C327        C328   1.535       .  S
C327       C2106   1.475       .  S
C328        C332   1.535       .  S
C328        C330   1.539       .  S
C328        H334   1.106       .  S
C329        H335   1.086       .  S
C329        C330   1.375       .  D
C330       C1845   1.500       .  S
C331        H336   1.084       .  S
C331        C332   1.352       .  D
C332       C1649   1.481       .  S
C337        C338   1.544   1_545  S
C337        C343   1.531       .  S
C337        C341   1.534       .  S
C337       C2722   1.532       .  S
C338        H345   1.080       .  S
C338        C339   1.355       .  D
C339        C340   1.530   1_565  S
C339       C2209   1.463       .  S
C340        C344   1.545   1_545  S
C340        C342   1.551       .  S
C340        H346   1.105       .  S
C341        H347   1.085       .  S
C341        C342   1.376       .  D
C342       C1957   1.510       .  S
C343        H348   1.083       .  S
C343        C344   1.360   1_545  D
C344       C1602   1.485       .  S
C349        C350   1.549       .  S
C349        C355   1.525       .  S
C349        C353   1.545   1_545  S
C349       C3114   1.537       .  S
C350        H357   1.079       .  S
C350        C351   1.358       .  D
C351        C352   1.545       .  S
C351       C1929   1.488       .  S
C352        C356   1.542       .  S
C352        C354   1.551   1_545  S
C352        H358   1.110       .  S
C353        H359   1.084       .  S
C353        C354   1.374       .  D
C354       C2246   1.506       .  S
C355        H360   1.081       .  S
C355        C356   1.358       .  D
C356       C1565   1.480       .  S
C361        C362   1.534       .  S
C361        C367   1.552       .  S
C361        C365   1.541       .  S
C361       C1509   1.550       .  S
C362        H369   1.086       .  S
C362        C363   1.364       .  D
C363        C364   1.544       .  S
C363       C2162   1.480       .  S
C364        C368   1.540       .  S
C364        C366   1.542       .  S
C364        H370   1.109       .  S
C365        H371   1.085       .  S
C365        C366   1.374       .  D
C366       C1798   1.488       .  S
C367        H372   1.080       .  S
C367        C368   1.364       .  D
C368       C1537   1.502       .  S
C373        C374   1.555       .  S
C373        C379   1.533       .  S
C373        C377   1.533       .  S
C373       C1453   1.533       .  S
C374        H381   1.079       .  S
C374        C375   1.362       .  D
C375        C376   1.533       .  S
C375       C1882   1.478       .  S
C376        C380   1.534       .  S
C376        C378   1.546       .  S
C376        H382   1.111       .  S
C377        H383   1.084       .  S
C377        C378   1.364       .  D
C378       C2078   1.488       .  S
C379        H384   1.086       .  S
C379        C380   1.363       .  D
C380       C1490   1.473       .  S
C385        C386   1.541       .  S
C385        C391   1.531       .  S
C385        C389   1.547   1_545  S
C385       C2685   1.543       .  S
C386        H393   1.083       .  S
C386        C387   1.376       .  D
C387        C388   1.542       .  S
C387       C1994   1.497       .  S
C388        C392   1.541       .  S
C388        C390   1.550   1_545  S
C388        H394   1.105       .  S
C389        H395   1.081       .  S
C389        C390   1.363       .  D
C390       C2181   1.503       .  S
C391        H396   1.086       .  S
C391        C392   1.360       .  D
C392       C1434   1.481       .  S
C397        C398   1.549   1_545  S
C397        C403   1.533       .  S
C397        C401   1.539       .  S
C397       C3077   1.539       .  S
C398        H405   1.082       .  S
C398        C399   1.367       .  D
C399        C400   1.532   1_565  S
C399       C2274   1.483       .  S
C400        C404   1.530       .  S
C400        C402   1.536       .  S
C400        H406   1.107       .  S
C401        H407   1.084       .  S
C401        C402   1.368       .  D
C402       C1901   1.478       .  S
C403        H408   1.087       .  S
C403        C404   1.365       .  D
C404       C1397   1.473       .  S
O409       Zr445   2.439       .  S
O409        C420   1.294       .  A
O410       Zr444   2.434       .  S
O410        C421   1.290       .  A
O411       Zr417   2.436       .  S
O411        C422   1.292       .  A
O412       Zr417   2.428       .  S
O412        C423   1.292       .  A
O413       Zr447   2.433   1_554  S
O413        C423   1.291       .  A
O414       Zr446   2.457   1_554  S
O414        C422   1.295       .  A
O415       Zr417   2.453       .  S
O415        C421   1.296       .  A
O416       Zr417   2.441       .  S
O416        C420   1.292   1_554  A
Zr417       O418   2.332       .  S
Zr417       O419   2.343   1_554  S
Zr417       O427   2.341   1_554  S
Zr417       O425   2.332       .  S
O418       Zr444   2.334       .  S
O418       Zr447   2.334   1_554  S
O419       Zr445   2.346       .  S
O419       Zr446   2.345       .  S
C420       C2573   1.482       .  S
C421       C1518   1.487       .  S
C422       C1201   1.484       .  S
C423       C1369   1.479       .  S
H424        O425   0.965       .  S
O425       Zr444   2.339       .  S
O425       Zr446   2.350   1_554  S
H426        O427   0.965       .  S
O427       Zr445   2.335       .  S
O427       Zr447   2.350       .  S
O428       Zr444   2.436       .  S
O428        C451   1.293   1_554  A
O429       Zr445   2.434       .  S
O429        C452   1.291       .  A
O430       Zr446   2.436   1_554  S
O430        C453   1.291       .  A
O431       Zr447   2.454   1_554  S
O431        C454   1.296       .  A
O432       Zr447   2.459       .  S
O432        C455   1.296       .  A
O433       Zr446   2.427       .  S
O433        C456   1.290       .  A
O434       Zr448   2.466       .  S
O434        C457   1.298       .  A
O435       Zr448   2.446       .  S
O435        C458   1.296       .  A
O436       Zr446   2.463       .  S
O436        C457   1.296       .  A
O437       Zr447   2.430       .  S
O437        C458   1.291       .  A
O438       Zr444   2.418       .  S
O438        C453   1.288       .  A
O439       Zr445   2.459       .  S
O439        C456   1.298       .  A
O440       Zr445   2.477       .  S
O440        C455   1.300       .  A
O441       Zr444   2.429       .  S
O441        C454   1.290       .  A
O442       Zr448   2.446       .  S
O442        C451   1.293       .  A
O443       Zr448   2.433       .  S
O443        C452   1.293       .  A
Zr444       O450   2.336   1_554  S
Zr444       O462   2.337   1_554  S
Zr445       O449   2.341       .  S
Zr445       O460   2.346       .  S
Zr446       O450   2.336       .  S
Zr446       O460   2.351       .  S
Zr447       O449   2.340       .  S
Zr447       O462   2.361       .  S
Zr448       O449   2.348       .  S
Zr448       O450   2.333       .  S
Zr448       O462   2.351       .  S
Zr448       O460   2.330       .  S
C451       C2414   1.488       .  S
C452       C1686   1.484       .  S
C453       C1182   1.458       .  S
C454       C1285   1.492       .  S
C455       C1341   1.514       .  S
C456       C1229   1.479       .  S
C457       C1257   1.501       .  S
C458       C1313   1.486       .  S
H459        O460   0.965       .  S
H461        O462   0.966       .  S
O463       Zr499   2.422       .  S
O463        C474   1.289       .  A
O464       Zr498   2.436       .  S
O464        C475   1.292       .  A
O465       Zr471   2.428       .  S
O465        C476   1.290       .  A
O466       Zr471   2.425       .  S
O466        C477   1.290       .  A
O467       Zr501   2.457   1_554  S
O467        C477   1.295       .  A
O468       Zr500   2.446       .  S
O468        C476   1.294       .  A
O469       Zr471   2.436       .  S
O469        C475   1.293       .  A
O470       Zr471   2.441       .  S
O470        C474   1.292   1_554  A
Zr471       O472   2.332       .  S
Zr471       O473   2.330   1_554  S
Zr471       O481   2.343   1_554  S
Zr471       O479   2.344       .  S
O472       Zr498   2.342       .  S
O472       Zr501   2.343   1_554  S
O473       Zr499   2.339       .  S
O473       Zr500   2.339   1_556  S
C474       C2629   1.462       .  S
C475       C1462   1.477       .  S
C476       C1005   1.474       .  S
C477       C1126   1.482       .  S
H478        O479   0.965       .  S
O479       Zr498   2.343       .  S
O479       Zr500   2.329       .  S
H480        O481   0.965       .  S
O481       Zr499   2.350       .  S
O481       Zr501   2.331       .  S
O482       Zr498   2.433       .  S
O482        C505   1.291       .  A
O483       Zr499   2.442       .  S
O483        C506   1.294       .  A
O484       Zr500   2.448       .  S
O484        C507   1.294       .  A
O485       Zr501   2.430   1_554  S
O485        C508   1.290       .  A
O486       Zr501   2.448       .  S
O486        C509   1.293       .  A
O487       Zr500   2.438   1_556  S
O487        C510   1.293       .  A
O488       Zr502   2.437       .  S
O488        C511   1.292       .  A
O489       Zr502   2.448       .  S
O489        C512   1.295       .  A
O490       Zr500   2.437   1_556  S
O490        C511   1.293       .  A
O491       Zr501   2.434       .  S
O491        C512   1.291       .  A
O492       Zr498   2.467       .  S
O492        C507   1.298       .  A
O493       Zr499   2.439       .  S
O493        C510   1.292       .  A
O494       Zr499   2.448       .  S
O494        C509   1.295       .  A
O495       Zr498   2.444       .  S
O495        C508   1.295       .  A
O496       Zr502   2.439       .  S
O496        C505   1.294   1_556  A
O497       Zr502   2.439       .  S
O497        C506   1.292       .  A
Zr498       O504   2.334       .  S
Zr498       O516   2.351   1_554  S
Zr499       O503   2.331       .  S
Zr499       O514   2.342       .  S
Zr500       O504   2.343       .  S
Zr500       O514   2.338   1_554  S
Zr501       O503   2.347       .  S
Zr501       O516   2.348       .  S
Zr502       O503   2.340       .  S
Zr502       O504   2.339   1_556  S
Zr502       O516   2.342       .  S
Zr502       O514   2.343       .  S
C505       C2470   1.482   1_554  S
C506       C1630   1.475       .  S
C507        C986   1.497       .  S
C508       C1154   1.485       .  S
C509       C1089   1.491       .  S
C510       C1033   1.476       .  S
C511        C958   1.482       .  S
C512       C1070   1.485       .  S
H513        O514   0.965       .  S
H515        O516   0.965       .  S
C517        C518   1.548       .  S
C517        C523   1.530       .  S
C517        C521   1.532   1_455  S
C517       C2041   1.533   1_455  S
C518        H525   1.078       .  S
C518        C519   1.365       .  D
C519        C520   1.542       .  S
C519       C1042   1.485       .  S
C520        C524   1.542       .  S
C520        C522   1.551   1_455  S
C520        H526   1.110       .  S
C521        H527   1.086       .  S
C521        C522   1.363       .  D
C522       C1350   1.489       .  S
C523        H528   1.087       .  S
C523        C524   1.364       .  D
C524        C930   1.490       .  S
C529        C530   1.527       .  S
C529        C535   1.526       .  S
C529        C533   1.554   1_655  S
C529       C1770   1.531       .  S
C530        H537   1.086       .  S
C530        C531   1.362       .  D
C531        C532   1.541       .  S
C531       C1322   1.482       .  S
C532        C536   1.541       .  S
C532        C534   1.533   1_655  S
C532        H538   1.106       .  S
C533        H539   1.080       .  S
C533        C534   1.374       .  D
C534        C949   1.491       .  S
C535        H540   1.085       .  S
C535        C536   1.360       .  D
C536        C902   1.477   1_655  S
C541        C542   1.535       .  S
C541        C547   1.527       .  S
C541        C545   1.542       .  S
C541       C3282   1.535       .  S
C542        H549   1.085       .  S
C542        C543   1.369       .  D
C543        C544   1.540       .  S
C543       C1098   1.491       .  S
C544        C548   1.533       .  S
C544        C546   1.534       .  S
C544        H550   1.105       .  S
C545        H551   1.081       .  S
C545        C546   1.362       .  D
C546       C1238   1.466       .  S
C547        H552   1.087       .  S
C547        C548   1.368       .  D
C548        C865   1.480       .  S
C553        C554   1.554       .  S
C553        C559   1.527       .  S
C553        C557   1.528       .  S
C553       C2862   1.535       .  S
C554        H561   1.080       .  S
C554        C555   1.372       .  D
C555        C556   1.540       .  S
C555       C1210   1.501       .  S
C556        C560   1.552       .  S
C556        C558   1.549       .  S
C556        H562   1.108       .  S
C557        H563   1.083       .  S
C557        C558   1.365       .  D
C558       C1117   1.485       .  S
C559        H564   1.086       .  S
C559        C560   1.359       .  D
C560        C846   1.491       .  S
C565        C566   1.549   1_655  S
C565        C571   1.513       .  S
C565        C569   1.527       .  S
C565       C1742   1.537       .  S
C566        H573   1.081       .  S
C566        C567   1.369       .  D
C567        C568   1.550   1_455  S
C567        C977   1.508       .  S
C568        C572   1.564       .  S
C568        C570   1.556       .  S
C568        H574   1.108       .  S
C569        H575   1.085       .  S
C569        C570   1.373       .  D
C570       C1294   1.495       .  S
C571        H576   1.082       .  S
C571        C572   1.358       .  D
C572        C818   1.499       .  S
C577        C578   1.533       .  S
C577        C583   1.549       .  S
C577        C581   1.535   1_655  S
C577       C2022   1.544       .  S
C578        H585   1.086       .  S
C578        C579   1.365       .  D
C579        C580   1.531       .  S
C579       C1378   1.471       .  S
C580        C584   1.527       .  S
C580        C582   1.538   1_655  S
C580        H586   1.108       .  S
C581        H587   1.083       .  S
C581        C582   1.371       .  D
C582       C1014   1.479       .  S
C583        H588   1.082       .  S
C583        C584   1.365       .  D
C584        C781   1.480       .  S
C589        C590   1.556       .  S
C589        C595   1.527       .  S
C589        C593   1.536       .  S
C589       C3254   1.545       .  S
C590        H597   1.079       .  S
C590        C591   1.378       .  D
C591        C592   1.548       .  S
C591       C1266   1.518       .  S
C592        C596   1.546       .  S
C592        C594   1.542       .  S
C592        H598   1.107       .  S
C593        H599   1.084       .  S
C593        C594   1.369       .  D
C594       C1061   1.480       .  S
C595        H600   1.087       .  S
C595        C596   1.354       .  D
C596        C753   1.481       .  S
C601        C602   1.550       .  S
C601        C607   1.526       .  S
C601        C605   1.527       .  S
C601       C2825   1.541       .  S
C602        H609   1.079       .  S
C602        C603   1.371       .  D
C603        C604   1.537       .  S
C603       C1145   1.492       .  S
C604        C608   1.540       .  S
C604        C606   1.541       .  S
C604        H610   1.102       .  S
C605        H611   1.086       .  S
C605        C606   1.367       .  D
C606       C1173   1.478       .  S
C607        H612   1.087       .  S
C607        C608   1.366       .  D
C608        C725   1.487       .  S
O613       Zr649   2.492       .  S
O613        C624   1.301       .  A
O614       Zr648   2.454       .  S
O614        C625   1.294       .  A
O615       Zr621   2.452       .  S
O615        C626   1.294       .  A
O616       Zr621   2.478       .  S
O616        C627   1.299       .  A
O617       Zr651   2.423       .  S
O617        C627   1.288       .  A
O618       Zr650   2.418       .  S
O618        C626   1.288       .  A
O619       Zr621   2.430       .  S
O619        C625   1.292       .  A
O620       Zr621   2.396       .  S
O620        C624   1.284       .  A
Zr621       O622   2.330       .  S
Zr621       O623   2.348       .  S
Zr621       O631   2.337       .  S
Zr621       O629   2.340       .  S
O622       Zr648   2.344       .  S
O622       Zr651   2.343       .  S
O623       Zr649   2.343       .  S
O623       Zr650   2.336       .  S
C624       C3049   1.478       .  S
C625        C734   1.488       .  S
C626       C2386   1.465       .  S
C627       C1546   1.477       .  S
H628        O629   0.966       .  S
O629       Zr648   2.342       .  S
O629       Zr650   2.353       .  S
H630        O631   0.965       .  S
O631       Zr649   2.324       .  S
O631       Zr651   2.340       .  S
O632       Zr648   2.465       .  S
O632        C655   1.296       .  A
O633       Zr649   2.464       .  S
O633        C656   1.298       .  A
O634       Zr650   2.457       .  S
O634        C657   1.294       .  A
O635       Zr651   2.460       .  S
O635        C658   1.296       .  A
O636       Zr651   2.455       .  S
O636        C659   1.294       .  A
O637       Zr650   2.490       .  S
O637        C660   1.301       .  A
O638       Zr652   2.473       .  S
O638        C661   1.298       .  A
O639       Zr652   2.454       .  S
O639        C662   1.294       .  A
O640       Zr650   2.404       .  S
O640        C661   1.285       .  A
O641       Zr651   2.433       .  S
O641        C662   1.293       .  A
O642       Zr648   2.428       .  S
O642        C657   1.293       .  A
O643       Zr649   2.401       .  S
O643        C660   1.286       .  A
O644       Zr649   2.431       .  S
O644        C659   1.293       .  A
O645       Zr648   2.431       .  S
O645        C658   1.290       .  A
O646       Zr652   2.423       .  S
O646        C655   1.289       .  A
O647       Zr652   2.399       .  S
O647        C656   1.284       .  A
Zr648       O654   2.345       .  S
Zr648       O666   2.339       .  S
Zr649       O653   2.348       .  S
Zr649       O664   2.337       .  S
Zr650       O654   2.353       .  S
Zr650       O664   2.327       .  S
Zr651       O653   2.346       .  S
Zr651       O666   2.342       .  S
Zr652       O653   2.359       .  S
Zr652       O654   2.334       .  S
Zr652       O666   2.344       .  S
Zr652       O664   2.334       .  S
C655       C2330   1.473       .  S
C656        C874   1.470       .  S
C657       C1481   1.490       .  S
C658        C837   1.477       .  S
C659       C1714   1.496       .  S
C660        C762   1.480       .  S
C661       C1658   1.475       .  S
C662       C2554   1.493       .  S
H663        O664   0.965       .  S
H665        O666   0.965       .  S
O667       Zr703   2.477       .  S
O667        C678   1.298       .  A
O668       Zr702   2.460   1_455  S
O668        C679   1.297       .  A
O669       Zr675   2.488       .  S
O669        C680   1.300       .  A
O670       Zr675   2.474   1_545  S
O670        C681   1.299       .  A
O671       Zr705   2.406       .  S
O671        C681   1.285   1_554  A
O672       Zr704   2.403       .  S
O672        C680   1.286   1_655  A
O673       Zr675   2.417   1_545  S
O673        C679   1.288       .  A
O674       Zr675   2.392       .  S
O674        C678   1.284   1_556  A
Zr675       O676   2.342   1_565  S
Zr675       O677   2.340       .  S
Zr675       O685   2.343   1_566  S
Zr675       O683   2.336   1_455  S
O676       Zr702   2.339   1_455  S
O676       Zr705   2.345   1_556  S
O677       Zr703   2.333   1_556  S
O677       Zr704   2.344   1_455  S
C678       C2666   1.468       .  S
C679       C1406   1.480       .  S
C680        C921   1.481       .  S
C681       C2498   1.482       .  S
H682        O683   0.975       .  S
O683       Zr702   2.345   1_565  S
O683       Zr704   2.348       .  S
H684        O685   0.934       .  S
O685       Zr703   2.332   1_545  S
O685       Zr705   2.330       .  S
O686       Zr702   2.475       .  S
O686        C709   1.298       .  A
O687       Zr703   2.460   1_655  S
O687        C710   1.297       .  A
O688       Zr704   2.465       .  S
O688        C711   1.295       .  A
O689       Zr705   2.459   1_556  S
O689        C712   1.294       .  A
O690       Zr705   2.471       .  S
O690        C713   1.298       .  A
O691       Zr704   2.461   1_554  S
O691        C714   1.295       .  A
O692       Zr706   2.456   1_565  S
O692        C715   1.296       .  A
O693       Zr706   2.487       .  S
O693        C716   1.298       .  A
O694       Zr704   2.434       .  S
O694        C715   1.291   1_556  A
O695       Zr705   2.391   1_655  S
O695        C716   1.285       .  A
O696       Zr702   2.411       .  S
O696        C711   1.290   1_545  A
O697       Zr703   2.413       .  S
O697        C714   1.289   1_455  A
O698       Zr703   2.422   1_545  S
O698        C713   1.289       .  A
O699       Zr702   2.418       .  S
O699        C712   1.291   1_655  A
O700       Zr706   2.410       .  S
O700        C709   1.287   1_554  A
O701       Zr706   2.403       .  S
O701        C710   1.286   1_545  A
Zr702       O708   2.330       .  S
Zr702       O720   2.335   1_556  S
Zr703       O707   2.344   1_465  S
Zr703       O718   2.353   1_455  S
Zr704       O708   2.337   1_565  S
Zr704       O718   2.348   1_556  S
Zr705       O707   2.335   1_455  S
Zr705       O720   2.341   1_455  S
Zr706       O707   2.343       .  S
Zr706       O708   2.337   1_554  S
Zr706       O720   2.333       .  S
Zr706       O718   2.355   1_545  S
C709       C2442   1.475       .  S
C710       C1593   1.476       .  S
C711       C1574   1.495       .  S
C712        C893   1.485       .  S
C713       C1425   1.481       .  S
C714        C790   1.484       .  S
C715       C2610   1.492       .  S
C716        C809   1.494       .  S
H717        O718   0.972       .  S
H719        O720   0.978       .  S
C721        C722   1.404       .  A
C721        C726   1.405       .  A
C721        H731   1.084       .  S
C722        C727   1.478       .  S
C722        C723   1.406       .  A
C723        C724   1.392       .  A
C723        N728   1.428       .  S
C724        C725   1.405       .  A
C724        H729   1.084       .  S
C725        C726   1.412       .  A
C726        N730   1.428       .  S
C727        C732   1.406       .  A
C727        C736   1.402       .  A
N728        O743   1.262       .  A
N728        O744   1.262       .  A
N730        O741   1.261       .  A
N730        O742   1.262       .  A
C732        C733   1.395       .  A
C732        N737   1.429       .  S
C733        C734   1.407       .  A
C733        H738   1.083       .  S
C734        C735   1.416       .  A
C735        C736   1.404       .  A
C735        N739   1.428       .  S
C736        H740   1.084       .  S
N737        O747   1.262       .  A
N737        O748   1.262       .  A
N739        O745   1.262       .  A
N739        O746   1.262       .  A
C749        C750   1.399       .  A
C749        C754   1.403       .  A
C749        H759   1.084       .  S
C750        C755   1.484       .  S
C750        C751   1.415       .  A
C751        C752   1.401       .  A
C751        N756   1.429       .  S
C752        C753   1.398       .  A
C752        H757   1.084       .  S
C753        C754   1.415       .  A
C754        N758   1.428       .  S
C755        C760   1.417       .  A
C755        C764   1.393       .  A
N756        O771   1.262       .  A
N756        O772   1.262       .  A
N758        O769   1.261       .  A
N758        O770   1.260       .  A
C760        C761   1.409       .  A
C760        N765   1.427       .  S
C761        C762   1.402       .  A
C761        H766   1.084       .  S
C762        C763   1.415       .  A
C763        C764   1.392       .  A
C763        N767   1.426       .  S
C764        H768   1.084       .  S
N765        O775   1.262       .  A
N765        O776   1.262       .  A
N767        O773   1.262       .  A
N767        O774   1.260       .  A
C777        C778   1.404   1_455  A
C777        C782   1.403       .  A
C777        H787   1.084       .  S
C778        C783   1.481       .  S
C778        C779   1.411       .  A
C779        C780   1.393       .  A
C779        N784   1.429       .  S
C780        C781   1.401       .  A
C780        H785   1.084       .  S
C781        C782   1.410   1_655  A
C782        N786   1.428       .  S
C783        C788   1.410   1_655  A
C783        C792   1.403       .  A
N784        O799   1.262       .  A
N784        O800   1.262       .  A
N786        O797   1.261       .  A
N786        O798   1.262       .  A
C788        C789   1.393       .  A
C788        N793   1.430       .  S
C789        C790   1.407   1_455  A
C789        H794   1.084       .  S
C790        C791   1.412       .  A
C791        C792   1.404       .  A
C791        N795   1.427       .  S
C792        H796   1.083       .  S
N793        O803   1.262       .  A
N793        O804   1.262       .  A
N795        O801   1.262   1_554  A
N795        O802   1.262       .  A
C805        C806   1.410       .  A
C805        C810   1.412       .  A
C805        H815   1.082       .  S
C806        C811   1.495       .  S
C806        C807   1.414       .  A
C807        C808   1.387       .  A
C807        N812   1.432   1_655  S
C808        C809   1.407       .  A
C808        H813   1.085   1_655  S
C809        C810   1.413       .  A
C810        N814   1.427       .  S
C811        C816   1.415       .  A
C811        C820   1.399       .  A
N812        O827   1.262       .  A
N812        O828   1.262       .  A
N814        O825   1.261       .  A
N814        O826   1.262       .  A
C816        C817   1.407       .  A
C816        N821   1.428       .  S
C817        C818   1.402       .  A
C817        H822   1.075       .  S
C818        C819   1.422       .  A
C819        C820   1.393       .  A
C819        N823   1.431   1_655  S
C820        H824   1.082   1_655  S
N821        O831   1.262       .  A
N821        O832   1.261       .  A
N823        O829   1.263       .  A
N823        O830   1.262       .  A
C833        C834   1.399       .  A
C833        C838   1.398       .  A
C833        H843   1.084       .  S
C834        C839   1.488       .  S
C834        C835   1.419       .  A
C835        C836   1.404       .  A
C835        N840   1.429       .  S
C836        C837   1.400       .  A
C836        H841   1.084       .  S
C837        C838   1.412       .  A
C838        N842   1.427       .  S
C839        C844   1.415       .  A
C839        C848   1.397       .  A
N840        O855   1.262       .  A
N840        O856   1.262       .  A
N842        O853   1.261       .  A
N842        O854   1.261       .  A
C844        C845   1.406       .  A
C844        N849   1.427       .  S
C845        C846   1.402       .  A
C845        H850   1.084       .  S
C846        C847   1.417       .  A
C847        C848   1.397       .  A
C847        N851   1.427       .  S
C848        H852   1.084       .  S
N849        O859   1.262       .  A
N849        O860   1.262       .  A
N851        O857   1.262       .  A
N851        O858   1.262       .  A
C861        C862   1.403       .  A
C861        C866   1.399       .  A
C861        H871   1.081       .  S
C862        C867   1.486       .  S
C862        C863   1.417       .  A
C863        C864   1.387       .  A
C863        N868   1.430       .  S
C864        C865   1.399       .  A
C864        H869   1.084       .  S
C865        C866   1.413       .  A
C866        N870   1.428       .  S
C867        C872   1.420       .  A
C867        C876   1.399       .  A
N868        O883   1.263       .  A
N868        O884   1.262       .  A
N870        O881   1.262       .  A
N870        O882   1.262       .  A
C872        C873   1.399       .  A
C872        N877   1.429       .  S
C873        C874   1.398       .  A
C873        H878   1.084       .  S
C874        C875   1.414       .  A
C875        C876   1.390       .  A
C875        N879   1.430       .  S
C876        H880   1.081       .  S
N877        O887   1.262       .  A
N877        O888   1.262       .  A
N879        O885   1.261       .  A
N879        O886   1.262       .  A
C889        C890   1.403       .  A
C889        C894   1.408       .  A
C889        H899   1.084       .  S
C890        C895   1.476       .  S
C890        C891   1.407       .  A
C891        C892   1.386       .  A
C891        N896   1.430       .  S
C892        C893   1.405       .  A
C892        H897   1.084       .  S
C893        C894   1.417       .  A
C894        N898   1.428   1_556  S
C895        C900   1.409   1_455  A
C895        C904   1.400       .  A
N896        O911   1.262       .  A
N896        O912   1.262   1_455  A
N898        O909   1.262       .  A
N898        O910   1.262       .  A
C900        C901   1.396       .  A
C900        N905   1.428       .  S
C901        C902   1.396   1_655  A
C901        H906   1.076       .  S
C902        C903   1.415       .  A
C903        C904   1.394       .  A
C903        N907   1.430       .  S
C904        H908   1.084       .  S
N905        O915   1.262       .  A
N905        O916   1.262       .  A
N907        O913   1.262       .  A
N907        O914   1.262       .  A
C917        C918   1.407       .  A
C917        C922   1.409       .  A
C917        H927   1.084       .  S
C918        C923   1.486       .  S
C918        C919   1.407       .  A
C919        C920   1.397       .  A
C919        N924   1.429       .  S
C920        C921   1.406       .  A
C920        H925   1.085       .  S
C921        C922   1.410       .  A
C922        N926   1.427       .  S
C923        C928   1.409   1_455  A
C923        C932   1.403       .  A
N924        O939   1.262       .  A
N924        O940   1.262   1_455  A
N926        O937   1.262       .  A
N926        O938   1.262       .  A
C928        C929   1.397       .  A
C928        N933   1.428       .  S
C929        C930   1.402   1_655  A
C929        H934   1.084       .  S
C930        C931   1.416       .  A
C931        C932   1.406       .  A
C931        N935   1.429       .  S
C932        H936   1.084       .  S
N933        O943   1.262       .  A
N933        O944   1.262       .  A
N935        O941   1.262       .  A
N935        O942   1.262       .  A
C945        C946   1.401       .  A
C945        C950   1.399       .  A
C945        H955   1.084       .  S
C946        C951   1.482       .  S
C946        C947   1.409       .  A
C947        C948   1.399       .  A
C947        N952   1.428       .  S
C948        C949   1.405       .  A
C948        H953   1.084       .  S
C949        C950   1.417       .  A
C950        N954   1.429       .  S
C951        C956   1.409       .  A
C951        C960   1.404       .  A
N952        O967   1.262       .  A
N952        O968   1.262       .  A
N954        O965   1.262       .  A
N954        O966   1.262       .  A
C956        C957   1.398       .  A
C956        N961   1.428       .  S
C957        C958   1.406       .  A
C957        H962   1.084       .  S
C958        C959   1.413       .  A
C959        C960   1.399       .  A
C959        N963   1.429       .  S
C960        H964   1.084       .  S
N961        O971   1.262       .  A
N961        O972   1.262       .  A
N963        O969   1.262       .  A
N963        O970   1.262       .  A
C973        C974   1.407       .  A
C973        C978   1.409       .  A
C973        H983   1.084       .  S
C974        C979   1.504       .  S
C974        C975   1.414       .  A
C975        C976   1.406       .  A
C975        N980   1.429       .  S
C976        C977   1.408       .  A
C976        H981   1.084       .  S
C977        C978   1.416       .  A
C978        N982   1.427       .  S
C979        C984   1.415       .  A
C979        C988   1.407       .  A
N980        O995   1.262       .  A
N980        O996   1.262       .  A
N982        O993   1.261   1_455  A
N982        O994   1.262   1_455  A
C984        C985   1.406       .  A
C984        N989   1.428       .  S
C985        C986   1.404       .  A
C985        H990   1.083       .  S
C986        C987   1.415       .  A
C987        C988   1.407       .  A
C987        N991   1.427       .  S
C988        H992   1.084       .  S
N989        O999   1.262       .  A
N989       O1000   1.262       .  A
N991        O997   1.262       .  A
N991        O998   1.261       .  A
C1001      C1002   1.397       .  A
C1001      C1006   1.394       .  A
C1001      H1011   1.082       .  S
C1002      C1007   1.483       .  S
C1002      C1003   1.417       .  A
C1003      C1004   1.400       .  A
C1003      N1008   1.429       .  S
C1004      C1005   1.398       .  A
C1004      H1009   1.080       .  S
C1005      C1006   1.408       .  A
C1006      N1010   1.421       .  S
C1007      C1012   1.416       .  A
C1007      C1016   1.402       .  A
N1008      O1023   1.262       .  A
N1008      O1024   1.262       .  A
N1010      O1021   1.260       .  A
N1010      O1022   1.262       .  A
C1012      C1013   1.396       .  A
C1012      N1017   1.430       .  S
C1013      C1014   1.401       .  A
C1013      H1018   1.084       .  S
C1014      C1015   1.411       .  A
C1015      C1016   1.396       .  A
C1015      N1019   1.428       .  S
C1016      H1020   1.082       .  S
N1017      O1027   1.262       .  A
N1017      O1028   1.262       .  A
N1019      O1025   1.262   1_455  A
N1019      O1026   1.262   1_455  A
C1029      C1030   1.402       .  A
C1029      C1034   1.397       .  A
C1029      H1039   1.084       .  S
C1030      C1035   1.479       .  S
C1030      C1031   1.411       .  A
C1031      C1032   1.400       .  A
C1031      N1036   1.429       .  S
C1032      C1033   1.403       .  A
C1032      H1037   1.084       .  S
C1033      C1034   1.412       .  A
C1034      N1038   1.429       .  S
C1035      C1040   1.409       .  A
C1035      C1044   1.402       .  A
N1036      O1051   1.262       .  A
N1036      O1052   1.261       .  A
N1038      O1049   1.262       .  A
N1038      O1050   1.261       .  A
C1040      C1041   1.396       .  A
C1040      N1045   1.427       .  S
C1041      C1042   1.402       .  A
C1041      H1046   1.083       .  S
C1042      C1043   1.417       .  A
C1043      C1044   1.397       .  A
C1043      N1047   1.431       .  S
C1044      H1048   1.084       .  S
N1045      O1055   1.262       .  A
N1045      O1056   1.262       .  A
N1047      O1053   1.262       .  A
N1047      O1054   1.262       .  A
C1057      C1058   1.401       .  A
C1057      C1062   1.399       .  A
C1057      H1067   1.084       .  S
C1058      C1063   1.476       .  S
C1058      C1059   1.409       .  A
C1059      C1060   1.396       .  A
C1059      N1064   1.428       .  S
C1060      C1061   1.400       .  A
C1060      H1065   1.082       .  S
C1061      C1062   1.414       .  A
C1062      N1066   1.430       .  S
C1063      C1068   1.407       .  A
C1063      C1072   1.398       .  A
N1064      O1079   1.262       .  A
N1064      O1080   1.262       .  A
N1066      O1077   1.262       .  A
N1066      O1078   1.261       .  A
C1068      C1069   1.398       .  A
C1068      N1073   1.428       .  S
C1069      C1070   1.405       .  A
C1069      H1074   1.084       .  S
C1070      C1071   1.418       .  A
C1071      C1072   1.400       .  A
C1071      N1075   1.428       .  S
C1072      H1076   1.084       .  S
N1073      O1083   1.261       .  A
N1073      O1084   1.262       .  A
N1075      O1081   1.262       .  A
N1075      O1082   1.262       .  A
C1085      C1086   1.402       .  A
C1085      C1090   1.400       .  A
C1085      H1095   1.083       .  S
C1086      C1091   1.491       .  S
C1086      C1087   1.413       .  A
C1087      C1088   1.404       .  A
C1087      N1092   1.429       .  S
C1088      C1089   1.408       .  A
C1088      H1093   1.084       .  S
C1089      C1090   1.415       .  A
C1090      N1094   1.428       .  S
C1091      C1096   1.413       .  A
C1091      C1100   1.405       .  A
N1092      O1107   1.262       .  A
N1092      O1108   1.262       .  A
N1094      O1105   1.261       .  A
N1094      O1106   1.261       .  A
C1096      C1097   1.395       .  A
C1096      N1101   1.429       .  S
C1097      C1098   1.402       .  A
C1097      H1102   1.084       .  S
C1098      C1099   1.415       .  A
C1099      C1100   1.407       .  A
C1099      N1103   1.429       .  S
C1100      H1104   1.083       .  S
N1101      O1111   1.262       .  A
N1101      O1112   1.262       .  A
N1103      O1109   1.262       .  A
N1103      O1110   1.262       .  A
C1113      C1114   1.400       .  A
C1113      C1118   1.396       .  A
C1113      H1123   1.084       .  S
C1114      C1119   1.488       .  S
C1114      C1115   1.417       .  A
C1115      C1116   1.401       .  A
C1115      N1120   1.428       .  S
C1116      C1117   1.400       .  A
C1116      H1121   1.084       .  S
C1117      C1118   1.417       .  A
C1118      N1122   1.430       .  S
C1119      C1124   1.416       .  A
C1119      C1128   1.401       .  A
N1120      O1135   1.262       .  A
N1120      O1136   1.261       .  A
N1122      O1133   1.262       .  A
N1122      O1134   1.262       .  A
C1124      C1125   1.399       .  A
C1124      N1129   1.430       .  S
C1125      C1126   1.402       .  A
C1125      H1130   1.084       .  S
C1126      C1127   1.412       .  A
C1127      C1128   1.400       .  A
C1127      N1131   1.425       .  S
C1128      H1132   1.082       .  S
N1129      O1139   1.262       .  A
N1129      O1140   1.262       .  A
N1131      O1137   1.260       .  A
N1131      O1138   1.262       .  A
C1141      C1142   1.399       .  A
C1141      C1146   1.401       .  A
C1141      H1151   1.084       .  S
C1142      C1147   1.478       .  S
C1142      C1143   1.408       .  A
C1143      C1144   1.396       .  A
C1143      N1148   1.429       .  S
C1144      C1145   1.406       .  A
C1144      H1149   1.083       .  S
C1145      C1146   1.416       .  A
C1146      N1150   1.427       .  S
C1147      C1152   1.408       .  A
C1147      C1156   1.400       .  A
N1148      O1163   1.262       .  A
N1148      O1164   1.262       .  A
N1150      O1161   1.262       .  A
N1150      O1162   1.262       .  A
C1152      C1153   1.395       .  A
C1152      N1157   1.429       .  S
C1153      C1154   1.406       .  A
C1153      H1158   1.084       .  S
C1154      C1155   1.418       .  A
C1155      C1156   1.400       .  A
C1155      N1159   1.430       .  S
C1156      H1160   1.084       .  S
N1157      O1167   1.262       .  A
N1157      O1168   1.262       .  A
N1159      O1165   1.261       .  A
N1159      O1166   1.261       .  A
C1169      C1170   1.403       .  A
C1169      C1174   1.397       .  A
C1169      H1179   1.084       .  S
C1170      C1175   1.474       .  S
C1170      C1171   1.408       .  A
C1171      C1172   1.395       .  A
C1171      N1176   1.428       .  S
C1172      C1173   1.403       .  A
C1172      H1177   1.084       .  S
C1173      C1174   1.411       .  A
C1174      N1178   1.429       .  S
C1175      C1180   1.413       .  A
C1175      C1184   1.402       .  A
N1176      O1191   1.262       .  A
N1176      O1192   1.261       .  A
N1178      O1189   1.262       .  A
N1178      O1190   1.262       .  A
C1180      C1181   1.398       .  A
C1180      N1185   1.429       .  S
C1181      C1182   1.399       .  A
C1181      H1186   1.085       .  S
C1182      C1183   1.406       .  A
C1183      C1184   1.394       .  A
C1183      N1187   1.429       .  S
C1184      H1188   1.084       .  S
N1185      O1195   1.262       .  A
N1185      O1196   1.262       .  A
N1187      O1193   1.262       .  A
N1187      O1194   1.262       .  A
C1197      C1198   1.407       .  A
C1197      C1202   1.402       .  A
C1197      H1207   1.084       .  S
C1198      C1203   1.496       .  S
C1198      C1199   1.415       .  A
C1199      C1200   1.403       .  A
C1199      N1204   1.428       .  S
C1200      C1201   1.405       .  A
C1200      H1205   1.084       .  S
C1201      C1202   1.410       .  A
C1202      N1206   1.428       .  S
C1203      C1208   1.414       .  A
C1203      C1212   1.405       .  A
N1204      O1219   1.262       .  A
N1204      O1220   1.262       .  A
N1206      O1217   1.262       .  A
N1206      O1218   1.262       .  A
C1208      C1209   1.404       .  A
C1208      N1213   1.428       .  S
C1209      C1210   1.407       .  A
C1209      H1214   1.083       .  S
C1210      C1211   1.416       .  A
C1211      C1212   1.403       .  A
C1211      N1215   1.429       .  S
C1212      H1216   1.084       .  S
N1213      O1223   1.262       .  A
N1213      O1224   1.262       .  A
N1215      O1221   1.262       .  A
N1215      O1222   1.262       .  A
C1225      C1226   1.397       .  A
C1225      C1230   1.399       .  A
C1225      H1235   1.084       .  S
C1226      C1231   1.475       .  S
C1226      C1227   1.409       .  A
C1227      C1228   1.398       .  A
C1227      N1232   1.427       .  S
C1228      C1229   1.401       .  A
C1228      H1233   1.084       .  S
C1229      C1230   1.417       .  A
C1230      N1234   1.427       .  S
C1231      C1236   1.410       .  A
C1231      C1240   1.404       .  A
N1232      O1247   1.262       .  A
N1232      O1248   1.261       .  A
N1234      O1245   1.262       .  A
N1234      O1246   1.261       .  A
C1236      C1237   1.398       .  A
C1236      N1241   1.429       .  S
C1237      C1238   1.397       .  A
C1237      H1242   1.082       .  S
C1238      C1239   1.402       .  A
C1239      C1240   1.399       .  A
C1239      N1243   1.428       .  S
C1240      H1244   1.084       .  S
N1241      O1251   1.262       .  A
N1241      O1252   1.261       .  A
N1243      O1249   1.262       .  A
N1243      O1250   1.262       .  A
C1253      C1254   1.408       .  A
C1253      C1258   1.410       .  A
C1253      H1263   1.084       .  S
C1254      C1259   1.508       .  S
C1254      C1255   1.416       .  A
C1255      C1256   1.407       .  A
C1255      N1260   1.429       .  S
C1256      C1257   1.406       .  A
C1256      H1261   1.084       .  S
C1257      C1258   1.417       .  A
C1258      N1262   1.429       .  S
C1259      C1264   1.414       .  A
C1259      C1268   1.407       .  A
N1260      O1275   1.262       .  A
N1260      O1276   1.261       .  A
N1262      O1273   1.262       .  A
N1262      O1274   1.262       .  A
C1264      C1265   1.406       .  A
C1264      N1269   1.428       .  S
C1265      C1266   1.408       .  A
C1265      H1270   1.083       .  S
C1266      C1267   1.423       .  A
C1267      C1268   1.413       .  A
C1267      N1271   1.429       .  S
C1268      H1272   1.084       .  S
N1269      O1279   1.262       .  A
N1269      O1280   1.262       .  A
N1271      O1277   1.262       .  A
N1271      O1278   1.262       .  A
C1281      C1282   1.398       .  A
C1281      C1286   1.400       .  A
C1281      H1291   1.084       .  S
C1282      C1287   1.477       .  S
C1282      C1283   1.406       .  A
C1283      C1284   1.400       .  A
C1283      N1288   1.427       .  S
C1284      C1285   1.406       .  A
C1284      H1289   1.081       .  S
C1285      C1286   1.419       .  A
C1286      N1290   1.428       .  S
C1287      C1292   1.404       .  A
C1287      C1296   1.401       .  A
N1288      O1303   1.262       .  A
N1288      O1304   1.262       .  A
N1290      O1301   1.262       .  A
N1290      O1302   1.262       .  A
C1292      C1293   1.395       .  A
C1292      N1297   1.428       .  S
C1293      C1294   1.409       .  A
C1293      H1298   1.083       .  S
C1294      C1295   1.414       .  A
C1295      C1296   1.404       .  A
C1295      N1299   1.425       .  S
C1296      H1300   1.084       .  S
N1297      O1307   1.262       .  A
N1297      O1308   1.262       .  A
N1299      O1305   1.262       .  A
N1299      O1306   1.262       .  A
C1309      C1310   1.396       .  A
C1309      C1314   1.397       .  A
C1309      H1319   1.085       .  S
C1310      C1315   1.470       .  S
C1310      C1311   1.405       .  A
C1311      C1312   1.397       .  A
C1311      N1316   1.428       .  S
C1312      C1313   1.407       .  A
C1312      H1317   1.084       .  S
C1313      C1314   1.419       .  A
C1314      N1318   1.427       .  S
C1315      C1320   1.405       .  A
C1315      C1324   1.399       .  A
N1316      O1331   1.262       .  A
N1316      O1332   1.261       .  A
N1318      O1329   1.262       .  A
N1318      O1330   1.261       .  A
C1320      C1321   1.397       .  A
C1320      N1325   1.428       .  S
C1321      C1322   1.406       .  A
C1321      H1326   1.084       .  S
C1322      C1323   1.409       .  A
C1323      C1324   1.399       .  A
C1323      N1327   1.425       .  S
C1324      H1328   1.084       .  S
N1325      O1335   1.262       .  A
N1325      O1336   1.261       .  A
N1327      O1333   1.262       .  A
N1327      O1334   1.262       .  A
C1337      C1338   1.402       .  A
C1337      C1342   1.403       .  A
C1337      H1347   1.085       .  S
C1338      C1343   1.503       .  S
C1338      C1339   1.415       .  A
C1339      C1340   1.412       .  A
C1339      N1344   1.427       .  S
C1340      C1341   1.412       .  A
C1340      H1345   1.083       .  S
C1341      C1342   1.421       .  A
C1342      N1346   1.425       .  S
C1343      C1348   1.419       .  A
C1343      C1352   1.406       .  A
N1344      O1359   1.262       .  A
N1344      O1360   1.261       .  A
N1346      O1357   1.260       .  A
N1346      O1358   1.262       .  A
C1348      C1349   1.411       .  A
C1348      N1353   1.427       .  S
C1349      C1350   1.400       .  A
C1349      H1354   1.084       .  S
C1350      C1351   1.412       .  A
C1351      C1352   1.400       .  A
C1351      N1355   1.429       .  S
C1352      H1356   1.084       .  S
N1353      O1363   1.262       .  A
N1353      O1364   1.262       .  A
N1355      O1361   1.262       .  A
N1355      O1362   1.262       .  A
C1365      C1366   1.398       .  A
C1365      C1370   1.395       .  A
C1365      H1375   1.084       .  S
C1366      C1371   1.469       .  S
C1366      C1367   1.405       .  A
C1367      C1368   1.393       .  A
C1367      N1372   1.429       .  S
C1368      C1369   1.407       .  A
C1368      H1373   1.083       .  S
C1369      C1370   1.415       .  A
C1370      N1374   1.428       .  S
C1371      C1376   1.408       .  A
C1371      C1380   1.399       .  A
N1372      O1387   1.262       .  A
N1372      O1388   1.262       .  A
N1374      O1385   1.261       .  A
N1374      O1386   1.260       .  A
C1376      C1377   1.393       .  A
C1376      N1381   1.428       .  S
C1377      C1378   1.399       .  A
C1377      H1382   1.084       .  S
C1378      C1379   1.411       .  A
C1379      C1380   1.397       .  A
C1379      N1383   1.428       .  S
C1380      H1384   1.084       .  S
N1381      O1391   1.262       .  A
N1381      O1392   1.262       .  A
N1383      O1389   1.262       .  A
N1383      O1390   1.262       .  A
C1393      C1394   1.405       .  A
C1393      C1398   1.402       .  A
C1393      H1403   1.083   1_545  S
C1394      C1399   1.482       .  S
C1394      C1395   1.412       .  A
C1395      C1396   1.394       .  A
C1395      N1400   1.429       .  S
C1396      C1397   1.397       .  A
C1396      H1401   1.085       .  S
C1397      C1398   1.409       .  A
C1398      N1402   1.428   1_545  S
C1399      C1404   1.412       .  A
C1399      C1408   1.400       .  A
N1400      O1415   1.262       .  A
N1400      O1416   1.262       .  A
N1402      O1413   1.262       .  A
N1402      O1414   1.262       .  A
C1404      C1405   1.402       .  A
C1404      N1409   1.428       .  S
C1405      C1406   1.404       .  A
C1405      H1410   1.084       .  S
C1406      C1407   1.414       .  A
C1407      C1408   1.394       .  A
C1407      N1411   1.429       .  S
C1408      H1412   1.084       .  S
N1409      O1419   1.262       .  A
N1409      O1420   1.262       .  A
N1411      O1417   1.262       .  A
N1411      O1418   1.262       .  A
C1421      C1422   1.400       .  A
C1421      C1426   1.399       .  A
C1421      H1431   1.084       .  S
C1422      C1427   1.484       .  S
C1422      C1423   1.413       .  A
C1423      C1424   1.405       .  A
C1423      N1428   1.428       .  S
C1424      C1425   1.404       .  A
C1424      H1429   1.084       .  S
C1425      C1426   1.414       .  A
C1426      N1430   1.429   1_545  S
C1427      C1432   1.414       .  A
C1427      C1436   1.400       .  A
N1428      O1443   1.262       .  A
N1428      O1444   1.262       .  A
N1430      O1441   1.262       .  A
N1430      O1442   1.262   1_565  A
C1432      C1433   1.398       .  A
C1432      N1437   1.425   1_545  S
C1433      C1434   1.394       .  A
C1433      H1438   1.084   1_545  S
C1434      C1435   1.416       .  A
C1435      C1436   1.402       .  A
C1435      N1439   1.428       .  S
C1436      H1440   1.084       .  S
N1437      O1447   1.262       .  A
N1437      O1448   1.260       .  A
N1439      O1445   1.262       .  A
N1439      O1446   1.261       .  A
C1449      C1450   1.396       .  A
C1449      C1454   1.398       .  A
C1449      H1459   1.084       .  S
C1450      C1455   1.474       .  S
C1450      C1451   1.405       .  A
C1451      C1452   1.394       .  A
C1451      N1456   1.429       .  S
C1452      C1453   1.410       .  A
C1452      H1457   1.074       .  S
C1453      C1454   1.425       .  A
C1454      N1458   1.430       .  S
C1455      C1460   1.408       .  A
C1455      C1464   1.401       .  A
N1456      O1471   1.262       .  A
N1456      O1472   1.262       .  A
N1458      O1469   1.262       .  A
N1458      O1470   1.262       .  A
C1460      C1461   1.393       .  A
C1460      N1465   1.429       .  S
C1461      C1462   1.405       .  A
C1461      H1466   1.084       .  S
C1462      C1463   1.413       .  A
C1463      C1464   1.400       .  A
C1463      N1467   1.428       .  S
C1464      H1468   1.084       .  S
N1465      O1475   1.262       .  A
N1465      O1476   1.262       .  A
N1467      O1473   1.262       .  A
N1467      O1474   1.262       .  A
C1477      C1478   1.404       .  A
C1477      C1482   1.409       .  A
C1477      H1487   1.084       .  S
C1478      C1483   1.484       .  S
C1478      C1479   1.408       .  A
C1479      C1480   1.393       .  A
C1479      N1484   1.428       .  S
C1480      C1481   1.405       .  A
C1480      H1485   1.084       .  S
C1481      C1482   1.417       .  A
C1482      N1486   1.428       .  S
C1483      C1488   1.412       .  A
C1483      C1492   1.407       .  A
N1484      O1499   1.262       .  A
N1484      O1500   1.262       .  A
N1486      O1497   1.262       .  A
N1486      O1498   1.262       .  A
C1488      C1489   1.401       .  A
C1488      N1493   1.428       .  S
C1489      C1490   1.398       .  A
C1489      H1494   1.081       .  S
C1490      C1491   1.402       .  A
C1491      C1492   1.401       .  A
C1491      N1495   1.428       .  S
C1492      H1496   1.084       .  S
N1493      O1503   1.262       .  A
N1493      O1504   1.262       .  A
N1495      O1501   1.262       .  A
N1495      O1502   1.261       .  A
C1505      C1506   1.402       .  A
C1505      C1510   1.410       .  A
C1505      H1515   1.084       .  S
C1506      C1511   1.489       .  S
C1506      C1507   1.405       .  A
C1507      C1508   1.394       .  A
C1507      N1512   1.429       .  S
C1508      C1509   1.412       .  A
C1508      H1513   1.074       .  S
C1509      C1510   1.427       .  A
C1510      N1514   1.429       .  S
C1511      C1516   1.411       .  A
C1511      C1520   1.403       .  A
N1512      O1527   1.262       .  A
N1512      O1528   1.262       .  A
N1514      O1525   1.262       .  A
N1514      O1526   1.262       .  A
C1516      C1517   1.401       .  A
C1516      N1521   1.428       .  S
C1517      C1518   1.405       .  A
C1517      H1522   1.084       .  S
C1518      C1519   1.415       .  A
C1519      C1520   1.403       .  A
C1519      N1523   1.429       .  S
C1520      H1524   1.084       .  S
N1521      O1531   1.262       .  A
N1521      O1532   1.262       .  A
N1523      O1529   1.262       .  A
N1523      O1530   1.262       .  A
C1533      C1534   1.408       .  A
C1533      C1538   1.412       .  A
C1533      H1543   1.084       .  S
C1534      C1539   1.499       .  S
C1534      C1535   1.411       .  A
C1535      C1536   1.401       .  A
C1535      N1540   1.427       .  S
C1536      C1537   1.405       .  A
C1536      H1541   1.084       .  S
C1537      C1538   1.413       .  A
C1538      N1542   1.427       .  S
C1539      C1544   1.415       .  A
C1539      C1548   1.410       .  A
N1540      O1555   1.262       .  A
N1540      O1556   1.262       .  A
N1542      O1553   1.262       .  A
N1542      O1554   1.262       .  A
C1544      C1545   1.405       .  A
C1544      N1549   1.428       .  S
C1545      C1546   1.401       .  A
C1545      H1550   1.084       .  S
C1546      C1547   1.403       .  A
C1547      C1548   1.407       .  A
C1547      N1551   1.427       .  S
C1548      H1552   1.083       .  S
N1549      O1559   1.262       .  A
N1549      O1560   1.262       .  A
N1551      O1557   1.262       .  A
N1551      O1558   1.262       .  A
C1561      C1562   1.398   1_545  A
C1561      C1566   1.389       .  A
C1561      H1571   1.084       .  S
C1562      C1567   1.478       .  S
C1562      C1563   1.411       .  A
C1563      C1564   1.403       .  A
C1563      N1568   1.428       .  S
C1564      C1565   1.404   1_565  A
C1564      H1569   1.084       .  S
C1565      C1566   1.414       .  A
C1566      N1570   1.430       .  S
C1567      C1572   1.406   1_565  A
C1567      C1576   1.403       .  A
N1568      O1583   1.262       .  A
N1568      O1584   1.262       .  A
N1570      O1581   1.262       .  A
N1570      O1582   1.262       .  A
C1572      C1573   1.384       .  A
C1572      N1577   1.431       .  S
C1573      C1574   1.409   1_545  A
C1573      H1578   1.083       .  S
C1574      C1575   1.420       .  A
C1575      C1576   1.410       .  A
C1575      N1579   1.427       .  S
C1576      H1580   1.084       .  S
N1577      O1587   1.262       .  A
N1577      O1588   1.261       .  A
N1579      O1585   1.261       .  A
N1579      O1586   1.262       .  A
C1589      C1590   1.402       .  A
C1589      C1594   1.391       .  A
C1589      H1599   1.085       .  S
C1590      C1595   1.486       .  S
C1590      C1591   1.412       .  A
C1591      C1592   1.403       .  A
C1591      N1596   1.422       .  S
C1592      C1593   1.401       .  A
C1592      H1597   1.084       .  S
C1593      C1594   1.413       .  A
C1594      N1598   1.429       .  S
C1595      C1600   1.414   1_565  A
C1595      C1604   1.401       .  A
N1596      O1611   1.262       .  A
N1596      O1612   1.260   1_565  A
N1598      O1609   1.262   1_565  A
N1598      O1610   1.262       .  A
C1600      C1601   1.402       .  A
C1600      N1605   1.427       .  S
C1601      C1602   1.401   1_545  A
C1601      H1606   1.084       .  S
C1602      C1603   1.419       .  A
C1603      C1604   1.395       .  A
C1603      N1607   1.432       .  S
C1604      H1608   1.085       .  S
N1605      O1615   1.262       .  A
N1605      O1616   1.262       .  A
N1607      O1613   1.262       .  A
N1607      O1614   1.262       .  A
C1617      C1618   1.403       .  A
C1617      C1622   1.404       .  A
C1617      H1627   1.084       .  S
C1618      C1623   1.481       .  S
C1618      C1619   1.404       .  A
C1619      C1620   1.395       .  A
C1619      N1624   1.429       .  S
C1620      C1621   1.413       .  A
C1620      H1625   1.080       .  S
C1621      C1622   1.419       .  A
C1622      N1626   1.428       .  S
C1623      C1628   1.412       .  A
C1623      C1632   1.402       .  A
N1624      O1639   1.262       .  A
N1624      O1640   1.262       .  A
N1626      O1637   1.261       .  A
N1626      O1638   1.262       .  A
C1628      C1629   1.399       .  A
C1628      N1633   1.429       .  S
C1629      C1630   1.401       .  A
C1629      H1634   1.084       .  S
C1630      C1631   1.413       .  A
C1631      C1632   1.399       .  A
C1631      N1635   1.429       .  S
C1632      H1636   1.084       .  S
N1633      O1643   1.262       .  A
N1633      O1644   1.262       .  A
N1635      O1641   1.262       .  A
N1635      O1642   1.262       .  A
C1645      C1646   1.399       .  A
C1645      C1650   1.399       .  A
C1645      H1655   1.084       .  S
C1646      C1651   1.484       .  S
C1646      C1647   1.416       .  A
C1647      C1648   1.404       .  A
C1647      N1652   1.429       .  S
C1648      C1649   1.399       .  A
C1648      H1653   1.084       .  S
C1649      C1650   1.414       .  A
C1650      N1654   1.429       .  S
C1651      C1656   1.413       .  A
C1651      C1660   1.401       .  A
N1652      O1667   1.262       .  A
N1652      O1668   1.262       .  A
N1654      O1665   1.262       .  A
N1654      O1666   1.261       .  A
C1656      C1657   1.401       .  A
C1656      N1661   1.428       .  S
C1657      C1658   1.398       .  A
C1657      H1662   1.079       .  S
C1658      C1659   1.414       .  A
C1659      C1660   1.398       .  A
C1659      N1663   1.430       .  S
C1660      H1664   1.084       .  S
N1661      O1671   1.262       .  A
N1661      O1672   1.262       .  A
N1663      O1669   1.261       .  A
N1663      O1670   1.262       .  A
C1673      C1674   1.400       .  A
C1673      C1678   1.405       .  A
C1673      H1683   1.084       .  S
C1674      C1679   1.487       .  S
C1674      C1675   1.405       .  A
C1675      C1676   1.399       .  A
C1675      N1680   1.429       .  S
C1676      C1677   1.413       .  A
C1676      H1681   1.075       .  S
C1677      C1678   1.423       .  A
C1678      N1682   1.430       .  S
C1679      C1684   1.408       .  A
C1679      C1688   1.408       .  A
N1680      O1695   1.262       .  A
N1680      O1696   1.262       .  A
N1682      O1693   1.262       .  A
N1682      O1694   1.262       .  A
C1684      C1685   1.393       .  A
C1684      N1689   1.427       .  S
C1685      C1686   1.403       .  A
C1685      H1690   1.084       .  S
C1686      C1687   1.415       .  A
C1687      C1688   1.408       .  A
C1687      N1691   1.431       .  S
C1688      H1692   1.084       .  S
N1689      O1699   1.262       .  A
N1689      O1700   1.261       .  A
N1691      O1697   1.262       .  A
N1691      O1698   1.262       .  A
C1701      C1702   1.400       .  A
C1701      C1706   1.400       .  A
C1701      H1711   1.084       .  S
C1702      C1707   1.476       .  S
C1702      C1703   1.409       .  A
C1703      C1704   1.399       .  A
C1703      N1708   1.429       .  S
C1704      C1705   1.397       .  A
C1704      H1709   1.074       .  S
C1705      C1706   1.412       .  A
C1706      N1710   1.428       .  S
C1707      C1712   1.404       .  A
C1707      C1716   1.401       .  A
N1708      O1723   1.262       .  A
N1708      O1724   1.261       .  A
N1710      O1721   1.262       .  A
N1710      O1722   1.262       .  A
C1712      C1713   1.392       .  A
C1712      N1717   1.429       .  S
C1713      C1714   1.409       .  A
C1713      H1718   1.083       .  S
C1714      C1715   1.421       .  A
C1715      C1716   1.407       .  A
C1715      N1719   1.429       .  S
C1716      H1720   1.084       .  S
N1717      O1727   1.262       .  A
N1717      O1728   1.261       .  A
N1719      O1725   1.262       .  A
N1719      O1726   1.262       .  A
C1729      C1730   1.404   1_455  A
C1729      C1734   1.402       .  A
C1729      H1739   1.084       .  S
C1730      C1735   1.480       .  S
C1730      C1731   1.408       .  A
C1731      C1732   1.395       .  A
C1731      N1736   1.429       .  S
C1732      C1733   1.403       .  A
C1732      H1737   1.084       .  S
C1733      C1734   1.411   1_655  A
C1734      N1738   1.429       .  S
C1735      C1740   1.405   1_655  A
C1735      C1744   1.398       .  A
N1736      O1751   1.262       .  A
N1736      O1752   1.262       .  A
N1738      O1749   1.262       .  A
N1738      O1750   1.262       .  A
C1740      C1741   1.396       .  A
C1740      N1745   1.429       .  S
C1741      C1742   1.412   1_455  A
C1741      H1746   1.076       .  S
C1742      C1743   1.425       .  A
C1743      C1744   1.401       .  A
C1743      N1747   1.430       .  S
C1744      H1748   1.084       .  S
N1745      O1755   1.262       .  A
N1745      O1756   1.261       .  A
N1747      O1753   1.262       .  A
N1747      O1754   1.262       .  A
C1757      C1758   1.396       .  A
C1757      C1762   1.395       .  A
C1757      H1767   1.084       .  S
C1758      C1763   1.469       .  S
C1758      C1759   1.407   1_655  A
C1759      C1760   1.397       .  A
C1759      N1764   1.427       .  S
C1760      C1761   1.400   1_455  A
C1760      H1765   1.082       .  S
C1761      C1762   1.415       .  A
C1762      N1766   1.427       .  S
C1763      C1768   1.404   1_655  A
C1763      C1772   1.394       .  A
N1764      O1779   1.262       .  A
N1764      O1780   1.261       .  A
N1766      O1777   1.260       .  A
N1766      O1778   1.262       .  A
C1768      C1769   1.398       .  A
C1768      N1773   1.429       .  S
C1769      C1770   1.411   1_455  A
C1769      H1774   1.075       .  S
C1770      C1771   1.424       .  A
C1771      C1772   1.395       .  A
C1771      N1775   1.431       .  S
C1772      H1776   1.084       .  S
N1773      O1783   1.262       .  A
N1773      O1784   1.261       .  A
N1775      O1781   1.262       .  A
N1775      O1782   1.262       .  A
C1785      C1786   1.399       .  A
C1785      C1790   1.403       .  A
C1785      H1795   1.084       .  S
C1786      C1791   1.479       .  S
C1786      C1787   1.405       .  A
C1787      C1788   1.399       .  A
C1787      N1792   1.428       .  S
C1788      C1789   1.409       .  A
C1788      H1793   1.083       .  S
C1789      C1790   1.422       .  A
C1790      N1794   1.429       .  S
C1791      C1796   1.408       .  A
C1791      C1800   1.400       .  A
N1792      O1807   1.262       .  A
N1792      O1808   1.262       .  A
N1794      O1805   1.262       .  A
N1794      O1806   1.262       .  A
C1796      C1797   1.400       .  A
C1796      N1801   1.428       .  S
C1797      C1798   1.405       .  A
C1797      H1802   1.084       .  S
C1798      C1799   1.414       .  A
C1799      C1800   1.402       .  A
C1799      N1803   1.428       .  S
C1800      H1804   1.084       .  S
N1801      O1811   1.262       .  A
N1801      O1812   1.262       .  A
N1803      O1809   1.262       .  A
N1803      O1810   1.262       .  A
C1813      C1814   1.402       .  A
C1813      C1818   1.402       .  A
C1813      H1823   1.082       .  S
C1814      C1819   1.498       .  S
C1814      C1815   1.418       .  A
C1815      C1816   1.403       .  A
C1815      N1820   1.429       .  S
C1816      C1817   1.404       .  A
C1816      H1821   1.084       .  S
C1817      C1818   1.411       .  A
C1818      N1822   1.424       .  S
C1819      C1824   1.419       .  A
C1819      C1828   1.403       .  A
N1820      O1835   1.262       .  A
N1820      O1836   1.262       .  A
N1822      O1833   1.262       .  A
N1822      O1834   1.262       .  A
C1824      C1825   1.402       .  A
C1824      N1829   1.430       .  S
C1825      C1826   1.401       .  A
C1825      H1830   1.081       .  S
C1826      C1827   1.417       .  A
C1827      C1828   1.404       .  A
C1827      N1831   1.428       .  S
C1828      H1832   1.082       .  S
N1829      O1839   1.262       .  A
N1829      O1840   1.262       .  A
N1831      O1837   1.262       .  A
N1831      O1838   1.262       .  A
C1841      C1842   1.403       .  A
C1841      C1846   1.406       .  A
C1841      H1851   1.083       .  S
C1842      C1847   1.495       .  S
C1842      C1843   1.414       .  A
C1843      C1844   1.397       .  A
C1843      N1848   1.429       .  S
C1844      C1845   1.402       .  A
C1844      H1849   1.083       .  S
C1845      C1846   1.423       .  A
C1846      N1850   1.429       .  S
C1847      C1852   1.417       .  A
C1847      C1856   1.404       .  A
N1848      O1863   1.262       .  A
N1848      O1864   1.262       .  A
N1850      O1861   1.262       .  A
N1850      O1862   1.262       .  A
C1852      C1853   1.401       .  A
C1852      N1857   1.429       .  S
C1853      C1854   1.403       .  A
C1853      H1858   1.082       .  S
C1854      C1855   1.412       .  A
C1855      C1856   1.399       .  A
C1855      N1859   1.429       .  S
C1856      H1860   1.083       .  S
N1857      O1867   1.262       .  A
N1857      O1868   1.262       .  A
N1859      O1865   1.262       .  A
N1859      O1866   1.262       .  A
C1869      C1870   1.402       .  A
C1869      C1874   1.399       .  A
C1869      H1879   1.083       .  S
C1870      C1875   1.482       .  S
C1870      C1871   1.413       .  A
C1871      C1872   1.397       .  A
C1871      N1876   1.428       .  S
C1872      C1873   1.399       .  A
C1872      H1877   1.084       .  S
C1873      C1874   1.413       .  A
C1874      N1878   1.429       .  S
C1875      C1880   1.412       .  A
C1875      C1884   1.403       .  A
N1876      O1891   1.262       .  A
N1876      O1892   1.262       .  A
N1878      O1889   1.262       .  A
N1878      O1890   1.262       .  A
C1880      C1881   1.397       .  A
C1880      N1885   1.428       .  S
C1881      C1882   1.399       .  A
C1881      H1886   1.084       .  S
C1882      C1883   1.413       .  A
C1883      C1884   1.400       .  A
C1883      N1887   1.429       .  S
C1884      H1888   1.084       .  S
N1885      O1895   1.262       .  A
N1885      O1896   1.262       .  A
N1887      O1893   1.262       .  A
N1887      O1894   1.262       .  A
C1897      C1898   1.402       .  A
C1897      C1902   1.397       .  A
C1897      H1907   1.084       .  S
C1898      C1903   1.477       .  S
C1898      C1899   1.409       .  A
C1899      C1900   1.398       .  A
C1899      N1904   1.428       .  S
C1900      C1901   1.403       .  A
C1900      H1905   1.084       .  S
C1901      C1902   1.410       .  A
C1902      N1906   1.429       .  S
C1903      C1908   1.406       .  A
C1903      C1912   1.399       .  A
N1904      O1919   1.262       .  A
N1904      O1920   1.261       .  A
N1906      O1917   1.262       .  A
N1906      O1918   1.262       .  A
C1908      C1909   1.398       .  A
C1908      N1913   1.428       .  S
C1909      C1910   1.408       .  A
C1909      H1914   1.082       .  S
C1910      C1911   1.420       .  A
C1911      C1912   1.399       .  A
C1911      N1915   1.429       .  S
C1912      H1916   1.085       .  S
N1913      O1923   1.262       .  A
N1913      O1924   1.261       .  A
N1915      O1921   1.262       .  A
N1915      O1922   1.262       .  A
C1925      C1926   1.404       .  A
C1925      C1930   1.406       .  A
C1925      H1935   1.084       .  S
C1926      C1931   1.493       .  S
C1926      C1927   1.413       .  A
C1927      C1928   1.399       .  A
C1927      N1932   1.428       .  S
C1928      C1929   1.398       .  A
C1928      H1933   1.081       .  S
C1929      C1930   1.416       .  A
C1930      N1934   1.429       .  S
C1931      C1936   1.414       .  A
C1931      C1940   1.403       .  A
N1932      O1947   1.262       .  A
N1932      O1948   1.262       .  A
N1934      O1945   1.262       .  A
N1934      O1946   1.262       .  A
C1936      C1937   1.401       .  A
C1936      N1941   1.428       .  S
C1937      C1938   1.403       .  A
C1937      H1942   1.084       .  S
C1938      C1939   1.416       .  A
C1939      C1940   1.403       .  A
C1939      N1943   1.429       .  S
C1940      H1944   1.083       .  S
N1941      O1951   1.262       .  A
N1941      O1952   1.262       .  A
N1943      O1949   1.262       .  A
N1943      O1950   1.262       .  A
C1953      C1954   1.402       .  A
C1953      C1958   1.406       .  A
C1953      H1963   1.083       .  S
C1954      C1959   1.497       .  S
C1954      C1955   1.413       .  A
C1955      C1956   1.401       .  A
C1955      N1960   1.428       .  S
C1956      C1957   1.408       .  A
C1956      H1961   1.083       .  S
C1957      C1958   1.423       .  A
C1958      N1962   1.427       .  S
C1959      C1964   1.417       .  A
C1959      C1968   1.402       .  A
N1960      O1975   1.262       .  A
N1960      O1976   1.262       .  A
N1962      O1973   1.262       .  A
N1962      O1974   1.261       .  A
C1964      C1965   1.406       .  A
C1964      N1969   1.429       .  S
C1965      C1966   1.402       .  A
C1965      H1970   1.084       .  S
C1966      C1967   1.416       .  A
C1967      C1968   1.403       .  A
C1967      N1971   1.429       .  S
C1968      H1972   1.083       .  S
N1969      O1979   1.262       .  A
N1969      O1980   1.262       .  A
N1971      O1977   1.262       .  A
N1971      O1978   1.262       .  A
C1981      C1982   1.398       .  A
C1981      C1986   1.401       .  A
C1981      H1991   1.084       .  S
C1982      C1987   1.484       .  S
C1982      C1983   1.409       .  A
C1983      C1984   1.402       .  A
C1983      N1988   1.428       .  S
C1984      C1985   1.409       .  A
C1984      H1989   1.083       .  S
C1985      C1986   1.421       .  A
C1986      N1990   1.428       .  S
C1987      C1992   1.408       .  A
C1987      C1996   1.400       .  A
N1988      O2003   1.262       .  A
N1988      O2004   1.262       .  A
N1990      O2001   1.261       .  A
N1990      O2002   1.262       .  A
C1992      C1993   1.399       .  A
C1992      N1997   1.427       .  S
C1993      C1994   1.405       .  A
C1993      H1998   1.083       .  S
C1994      C1995   1.420       .  A
C1995      C1996   1.404       .  A
C1995      N1999   1.429       .  S
C1996      H2000   1.084       .  S
N1997      O2007   1.262       .  A
N1997      O2008   1.262       .  A
N1999      O2005   1.262       .  A
N1999      O2006   1.261       .  A
C2009      C2010   1.397   1_455  A
C2009      C2014   1.402       .  A
C2009      H2019   1.084       .  S
C2010      C2015   1.483       .  S
C2010      C2011   1.408       .  A
C2011      C2012   1.402       .  A
C2011      N2016   1.428       .  S
C2012      C2013   1.408       .  A
C2012      H2017   1.083       .  S
C2013      C2014   1.423   1_655  A
C2014      N2018   1.429       .  S
C2015      C2020   1.402       .  A
C2015      C2024   1.400       .  A
N2016      O2031   1.262       .  A
N2016      O2032   1.262       .  A
N2018      O2029   1.262       .  A
N2018      O2030   1.262       .  A
C2020      C2021   1.396       .  A
C2020      N2025   1.428       .  S
C2021      C2022   1.412       .  A
C2021      H2026   1.076       .  S
C2022      C2023   1.426       .  A
C2023      C2024   1.408       .  A
C2023      N2027   1.430   1_655  S
C2024      H2028   1.084       .  S
N2025      O2035   1.262       .  A
N2025      O2036   1.261       .  A
N2027      O2033   1.262       .  A
N2027      O2034   1.262   1_455  A
C2037      C2038   1.398       .  A
C2037      C2042   1.400       .  A
C2037      H2047   1.084       .  S
C2038      C2043   1.477       .  S
C2038      C2039   1.406   1_655  A
C2039      C2040   1.393       .  A
C2039      N2044   1.429       .  S
C2040      C2041   1.409   1_455  A
C2040      H2045   1.075       .  S
C2041      C2042   1.424       .  A
C2042      N2046   1.431       .  S
C2043      C2048   1.409       .  A
C2043      C2052   1.402   1_655  A
N2044      O2059   1.262       .  A
N2044      O2060   1.262       .  A
N2046      O2057   1.262       .  A
N2046      O2058   1.262       .  A
C2048      C2049   1.396       .  A
C2048      N2053   1.429       .  S
C2049      C2050   1.406       .  A
C2049      H2054   1.084       .  S
C2050      C2051   1.410   1_655  A
C2051      C2052   1.398       .  A
C2051      N2055   1.428       .  S
C2052      H2056   1.084       .  S
N2053      O2063   1.262       .  A
N2053      O2064   1.262       .  A
N2055      O2061   1.262       .  A
N2055      O2062   1.262       .  A
C2065      C2066   1.401       .  A
C2065      C2070   1.400       .  A
C2065      H2075   1.084       .  S
C2066      C2071   1.481       .  S
C2066      C2067   1.409       .  A
C2067      C2068   1.399       .  A
C2067      N2072   1.429       .  S
C2068      C2069   1.409       .  A
C2068      H2073   1.084       .  S
C2069      C2070   1.416       .  A
C2070      N2074   1.428       .  S
C2071      C2076   1.410       .  A
C2071      C2080   1.401       .  A
N2072      O2087   1.262       .  A
N2072      O2088   1.262       .  A
N2074      O2085   1.262       .  A
N2074      O2086   1.262       .  A
C2076      C2077   1.401       .  A
C2076      N2081   1.428       .  S
C2077      C2078   1.402       .  A
C2077      H2082   1.083       .  S
C2078      C2079   1.416       .  A
C2079      C2080   1.400       .  A
C2079      N2083   1.429       .  S
C2080      H2084   1.084       .  S
N2081      O2091   1.262       .  A
N2081      O2092   1.262       .  A
N2083      O2089   1.262       .  A
N2083      O2090   1.262       .  A
C2093      C2094   1.401       .  A
C2093      C2098   1.393       .  A
C2093      H2103   1.085       .  S
C2094      C2099   1.474       .  S
C2094      C2095   1.410       .  A
C2095      C2096   1.399       .  A
C2095      N2100   1.428       .  S
C2096      C2097   1.405       .  A
C2096      H2101   1.084       .  S
C2097      C2098   1.413       .  A
C2098      N2102   1.430       .  S
C2099      C2104   1.410       .  A
C2099      C2108   1.401       .  A
N2100      O2115   1.262       .  A
N2100      O2116   1.262       .  A
N2102      O2113   1.262       .  A
N2102      O2114   1.262       .  A
C2104      C2105   1.396       .  A
C2104      N2109   1.428       .  S
C2105      C2106   1.402       .  A
C2105      H2110   1.084       .  S
C2106      C2107   1.410       .  A
C2107      C2108   1.393       .  A
C2107      N2111   1.427       .  S
C2108      H2112   1.084       .  S
N2109      O2119   1.262       .  A
N2109      O2120   1.262       .  A
N2111      O2117   1.262       .  A
N2111      O2118   1.262       .  A
C2121      C2122   1.402       .  A
C2121      C2126   1.399       .  A
C2121      H2131   1.083       .  S
C2122      C2127   1.484       .  S
C2122      C2123   1.414       .  A
C2123      C2124   1.398       .  A
C2123      N2128   1.430       .  S
C2124      C2125   1.403       .  A
C2124      H2129   1.084       .  S
C2125      C2126   1.411       .  A
C2126      N2130   1.428       .  S
C2127      C2132   1.415       .  A
C2127      C2136   1.401       .  A
N2128      O2143   1.262       .  A
N2128      O2144   1.262       .  A
N2130      O2141   1.261       .  A
N2130      O2142   1.262       .  A
C2132      C2133   1.400       .  A
C2132      N2137   1.429       .  S
C2133      C2134   1.401       .  A
C2133      H2138   1.084       .  S
C2134      C2135   1.411       .  A
C2135      C2136   1.396       .  A
C2135      N2139   1.428       .  S
C2136      H2140   1.083       .  S
N2137      O2147   1.262       .  A
N2137      O2148   1.262       .  A
N2139      O2145   1.262       .  A
N2139      O2146   1.262       .  A
C2149      C2150   1.398       .  A
C2149      C2154   1.402       .  A
C2149      H2159   1.084       .  S
C2150      C2155   1.487       .  S
C2150      C2151   1.411       .  A
C2151      C2152   1.403       .  A
C2151      N2156   1.429       .  S
C2152      C2153   1.410       .  A
C2152      H2157   1.083       .  S
C2153      C2154   1.422       .  A
C2154      N2158   1.427       .  S
C2155      C2160   1.414       .  A
C2155      C2164   1.403       .  A
N2156      O2171   1.262       .  A
N2156      O2172   1.262       .  A
N2158      O2169   1.262       .  A
N2158      O2170   1.262       .  A
C2160      C2161   1.401       .  A
C2160      N2165   1.428       .  S
C2161      C2162   1.397       .  A
C2161      H2166   1.080       .  S
C2162      C2163   1.411       .  A
C2163      C2164   1.402       .  A
C2163      N2167   1.428       .  S
C2164      H2168   1.084       .  S
N2165      O2175   1.262       .  A
N2165      O2176   1.262       .  A
N2167      O2173   1.262       .  A
N2167      O2174   1.261       .  A
C2177      C2178   1.403       .  A
C2177      C2182   1.404       .  A
C2177      H2187   1.082       .  S
C2178      C2183   1.500       .  S
C2178      C2179   1.417       .  A
C2179      C2180   1.406       .  A
C2179      N2184   1.429       .  S
C2180      C2181   1.403       .  A
C2180      H2185   1.083       .  S
C2181      C2182   1.420       .  A
C2182      N2186   1.429       .  S
C2183      C2188   1.418       .  A
C2183      C2192   1.407       .  A
N2184      O2199   1.262       .  A
N2184      O2200   1.261       .  A
N2186      O2197   1.262       .  A
N2186      O2198   1.262       .  A
C2188      C2189   1.400       .  A
C2188      N2193   1.429       .  S
C2189      C2190   1.401       .  A
C2189      H2194   1.084       .  S
C2190      C2191   1.411       .  A
C2191      C2192   1.403       .  A
C2191      N2195   1.429       .  S
C2192      H2196   1.082       .  S
N2193      O2203   1.262       .  A
N2193      O2204   1.262       .  A
N2195      O2201   1.262       .  A
N2195      O2202   1.262       .  A
C2205      C2206   1.403       .  A
C2205      C2210   1.394       .  A
C2205      H2215   1.084       .  S
C2206      C2211   1.469       .  S
C2206      C2207   1.409       .  A
C2207      C2208   1.396       .  A
C2207      N2212   1.427       .  S
C2208      C2209   1.397       .  A
C2208      H2213   1.084       .  S
C2209      C2210   1.400       .  A
C2210      N2214   1.423       .  S
C2211      C2216   1.411       .  A
C2211      C2220   1.402       .  A
N2212      O2227   1.262       .  A
N2212      O2228   1.261       .  A
N2214      O2225   1.262       .  A
N2214      O2226   1.261       .  A
C2216      C2217   1.394       .  A
C2216      N2221   1.428       .  S
C2217      C2218   1.398       .  A
C2217      H2222   1.085       .  S
C2218      C2219   1.407       .  A
C2219      C2220   1.394       .  A
C2219      N2223   1.429       .  S
C2220      H2224   1.084       .  S
N2221      O2231   1.262       .  A
N2221      O2232   1.261       .  A
N2223      O2229   1.262       .  A
N2223      O2230   1.262       .  A
C2233      C2234   1.404       .  A
C2233      C2238   1.404       .  A
C2233      H2243   1.082       .  S
C2234      C2239   1.501       .  S
C2234      C2235   1.416       .  A
C2235      C2236   1.406       .  A
C2235      N2240   1.429       .  S
C2236      C2237   1.406       .  A
C2236      H2241   1.084       .  S
C2237      C2238   1.415       .  A
C2238      N2242   1.428       .  S
C2239      C2244   1.415       .  A
C2239      C2248   1.405       .  A
N2240      O2255   1.262       .  A
N2240      O2256   1.262       .  A
N2242      O2253   1.262       .  A
N2242      O2254   1.262       .  A
C2244      C2245   1.403       .  A
C2244      N2249   1.429       .  S
C2245      C2246   1.404       .  A
C2245      H2250   1.079       .  S
C2246      C2247   1.418       .  A
C2247      C2248   1.409       .  A
C2247      N2251   1.428       .  S
C2248      H2252   1.083       .  S
N2249      O2259   1.262       .  A
N2249      O2260   1.262       .  A
N2251      O2257   1.262       .  A
N2251      O2258   1.262       .  A
C2261      C2262   1.406       .  A
C2261      C2266   1.401       .  A
C2261      H2271   1.083       .  S
C2262      C2267   1.486       .  S
C2262      C2263   1.413       .  A
C2263      C2264   1.395       .  A
C2263      N2268   1.429       .  S
C2264      C2265   1.402       .  A
C2264      H2269   1.085       .  S
C2265      C2266   1.409       .  A
C2266      N2270   1.429       .  S
C2267      C2272   1.413       .  A
C2267      C2276   1.402       .  A
N2268      O2283   1.262       .  A
N2268      O2284   1.262       .  A
N2270      O2281   1.262       .  A
N2270      O2282   1.262       .  A
C2272      C2273   1.398       .  A
C2272      N2277   1.429       .  S
C2273      C2274   1.402       .  A
C2273      H2278   1.084       .  S
C2274      C2275   1.413       .  A
C2275      C2276   1.399       .  A
C2275      N2279   1.428   1_565  S
C2276      H2280   1.083       .  S
N2277      O2287   1.262       .  A
N2277      O2288   1.262       .  A
N2279      O2285   1.262       .  A
N2279      O2286   1.261       .  A
C2289      C2290   1.402       .  A
C2289      C2294   1.410       .  A
C2289      H2299   1.084       .  S
C2290      C2295   1.485       .  S
C2290      C2291   1.401       .  A
C2291      C2292   1.395       .  A
C2291      N2296   1.429       .  S
C2292      C2293   1.415       .  A
C2292      H2297   1.072       .  S
C2293      C2294   1.426       .  A
C2294      N2298   1.430       .  S
C2295      C2300   1.407       .  A
C2295      C2304   1.401       .  A
N2296      O2311   1.262       .  A
N2296      O2312   1.261       .  A
N2298      O2309   1.262       .  A
N2298      O2310   1.262       .  A
C2300      C2301   1.398       .  A
C2300      N2305   1.429       .  S
C2301      C2302   1.409       .  A
C2301      H2306   1.083       .  S
C2302      C2303   1.422       .  A
C2303      C2304   1.407       .  A
C2303      N2307   1.429       .  S
C2304      H2308   1.084       .  S
N2305      O2315   1.262       .  A
N2305      O2316   1.261       .  A
N2307      O2313   1.262       .  A
N2307      O2314   1.262       .  A
C2317      C2318   1.404       .  A
C2317      C2322   1.397       .  A
C2317      H2327   1.085       .  S
C2318      C2323   1.489       .  S
C2318      C2319   1.413       .  A
C2319      C2320   1.404       .  A
C2319      N2324   1.427       .  S
C2320      C2321   1.402       .  A
C2320      H2325   1.084       .  S
C2321      C2322   1.411       .  A
C2322      N2326   1.430       .  S
C2323      C2328   1.411       .  A
C2323      C2332   1.406       .  A
N2324      O2339   1.262       .  A
N2324      O2340   1.261       .  A
N2326      O2337   1.261       .  A
N2326      O2338   1.262       .  A
C2328      C2329   1.404       .  A
C2328      N2333   1.428       .  S
C2329      C2330   1.403       .  A
C2329      H2334   1.085       .  S
C2330      C2331   1.407       .  A
C2331      C2332   1.400       .  A
C2331      N2335   1.427       .  S
C2332      H2336   1.084       .  S
N2333      O2343   1.262       .  A
N2333      O2344   1.262       .  A
N2335      O2341   1.262       .  A
N2335      O2342   1.261       .  A
C2345      C2346   1.404       .  A
C2345      C2350   1.404       .  A
C2345      H2355   1.083       .  S
C2346      C2351   1.490       .  S
C2346      C2347   1.412       .  A
C2347      C2348   1.400       .  A
C2347      N2352   1.429       .  S
C2348      C2349   1.404       .  A
C2348      H2353   1.084       .  S
C2349      C2350   1.415       .  A
C2350      N2354   1.428       .  S
C2351      C2356   1.410       .  A
C2351      C2360   1.399       .  A
N2352      O2367   1.262       .  A
N2352      O2368   1.262       .  A
N2354      O2365   1.262       .  A
N2354      O2366   1.262       .  A
C2356      C2357   1.402       .  A
C2356      N2361   1.429       .  S
C2357      C2358   1.412       .  A
C2357      H2362   1.077       .  S
C2358      C2359   1.423       .  A
C2359      C2360   1.403       .  A
C2359      N2363   1.430       .  S
C2360      H2364   1.084       .  S
N2361      O2371   1.262       .  A
N2361      O2372   1.262       .  A
N2363      O2369   1.262       .  A
N2363      O2370   1.262       .  A
C2373      C2374   1.401       .  A
C2373      C2378   1.403       .  A
C2373      H2383   1.084       .  S
C2374      C2379   1.473       .  S
C2374      C2375   1.408       .  A
C2375      C2376   1.393       .  A
C2375      N2380   1.428       .  S
C2376      C2377   1.400       .  A
C2376      H2381   1.084       .  S
C2377      C2378   1.413       .  A
C2378      N2382   1.429       .  S
C2379      C2384   1.408       .  A
C2379      C2388   1.399       .  A
N2380      O2395   1.262       .  A
N2380      O2396   1.262       .  A
N2382      O2393   1.262       .  A
N2382      O2394   1.262       .  A
C2384      C2385   1.401       .  A
C2384      N2389   1.427       .  S
C2385      C2386   1.401       .  A
C2385      H2390   1.085       .  S
C2386      C2387   1.410       .  A
C2387      C2388   1.396       .  A
C2387      N2391   1.429       .  S
C2388      H2392   1.084       .  S
N2389      O2399   1.261       .  A
N2389      O2400   1.262       .  A
N2391      O2397   1.262       .  A
N2391      O2398   1.262       .  A
C2401      C2402   1.398       .  A
C2401      C2406   1.403       .  A
C2401      H2411   1.084       .  S
C2402      C2407   1.487       .  S
C2402      C2403   1.408   1_556  A
C2403      C2404   1.402       .  A
C2403      N2408   1.430       .  S
C2404      C2405   1.414   1_554  A
C2404      H2409   1.075       .  S
C2405      C2406   1.425       .  A
C2406      N2410   1.430       .  S
C2407      C2412   1.410   1_556  A
C2407      C2416   1.404       .  A
N2408      O2423   1.262       .  A
N2408      O2424   1.261       .  A
N2410      O2421   1.262       .  A
N2410      O2422   1.262       .  A
C2412      C2413   1.399       .  A
C2412      N2417   1.428       .  S
C2413      C2414   1.404   1_554  A
C2413      H2418   1.084       .  S
C2414      C2415   1.416       .  A
C2415      C2416   1.405       .  A
C2415      N2419   1.429       .  S
C2416      H2420   1.084       .  S
N2417      O2427   1.261       .  A
N2417      O2428   1.262       .  A
N2419      O2425   1.262       .  A
N2419      O2426   1.261       .  A
C2429      C2430   1.404       .  A
C2429      C2434   1.406       .  A
C2429      H2439   1.083       .  S
C2430      C2435   1.490       .  S
C2430      C2431   1.413   1_556  A
C2431      C2432   1.398       .  A
C2431      N2436   1.429       .  S
C2432      C2433   1.402   1_554  A
C2432      H2437   1.084       .  S
C2433      C2434   1.413       .  A
C2434      N2438   1.427       .  S
C2435      C2440   1.412       .  A
C2435      C2444   1.407       .  A
N2436      O2451   1.262       .  A
N2436      O2452   1.262       .  A
N2438      O2449   1.262       .  A
N2438      O2450   1.262       .  A
C2440      C2441   1.399       .  A
C2440      N2445   1.429       .  S
C2441      C2442   1.404       .  A
C2441      H2446   1.085       .  S
C2442      C2443   1.408       .  A
C2443      C2444   1.404       .  A
C2443      N2447   1.427       .  S
C2444      H2448   1.083       .  S
N2445      O2455   1.262       .  A
N2445      O2456   1.262   1_556  A
N2447      O2453   1.262       .  A
N2447      O2454   1.262       .  A
C2457      C2458   1.398       .  A
C2457      C2462   1.399       .  A
C2457      H2467   1.083       .  S
C2458      C2463   1.485       .  S
C2458      C2459   1.410   1_556  A
C2459      C2460   1.398       .  A
C2459      N2464   1.430       .  S
C2460      C2461   1.410   1_554  A
C2460      H2465   1.075       .  S
C2461      C2462   1.425       .  A
C2462      N2466   1.431       .  S
C2463      C2468   1.411       .  A
C2463      C2472   1.403   1_556  A
N2464      O2479   1.262       .  A
N2464      O2480   1.262       .  A
N2466      O2477   1.262       .  A
N2466      O2478   1.262       .  A
C2468      C2469   1.394       .  A
C2468      N2473   1.429       .  S
C2469      C2470   1.404       .  A
C2469      H2474   1.084       .  S
C2470      C2471   1.414   1_556  A
C2471      C2472   1.400       .  A
C2471      N2475   1.428       .  S
C2472      H2476   1.083       .  S
N2473      O2483   1.262       .  A
N2473      O2484   1.262       .  A
N2475      O2481   1.262       .  A
N2475      O2482   1.262       .  A
C2485      C2486   1.406       .  A
C2485      C2490   1.409       .  A
C2485      H2495   1.082       .  S
C2486      C2491   1.494       .  S
C2486      C2487   1.414   1_556  A
C2487      C2488   1.390       .  A
C2487      N2492   1.431       .  S
C2488      C2489   1.403   1_554  A
C2488      H2493   1.083       .  S
C2489      C2490   1.418       .  A
C2490      N2494   1.428       .  S
C2491      C2496   1.417       .  A
C2491      C2500   1.401   1_556  A
N2492      O2507   1.262       .  A
N2492      O2508   1.262       .  A
N2494      O2505   1.262       .  A
N2494      O2506   1.262       .  A
C2496      C2497   1.405       .  A
C2496      N2501   1.428       .  S
C2497      C2498   1.402       .  A
C2497      H2502   1.081       .  S
C2498      C2499   1.416   1_556  A
C2499      C2500   1.392       .  A
C2499      N2503   1.431       .  S
C2500      H2504   1.083       .  S
N2501      O2511   1.262       .  A
N2501      O2512   1.262       .  A
N2503      O2509   1.261       .  A
N2503      O2510   1.262       .  A
C2513      C2514   1.399       .  A
C2513      C2518   1.406       .  A
C2513      H2523   1.084       .  S
C2514      C2519   1.481       .  S
C2514      C2515   1.402       .  A
C2515      C2516   1.397       .  A
C2515      N2520   1.428       .  S
C2516      C2517   1.414       .  A
C2516      H2521   1.075       .  S
C2517      C2518   1.423       .  A
C2518      N2522   1.429       .  S
C2519      C2524   1.408       .  A
C2519      C2528   1.398       .  A
N2520      O2535   1.262       .  A
N2520      O2536   1.262       .  A
N2522      O2533   1.262       .  A
N2522      O2534   1.262       .  A
C2524      C2525   1.401       .  A
C2524      N2529   1.428       .  S
C2525      C2526   1.407       .  A
C2525      H2530   1.083       .  S
C2526      C2527   1.422       .  A
C2527      C2528   1.401       .  A
C2527      N2531   1.430       .  S
C2528      H2532   1.084       .  S
N2529      O2539   1.262       .  A
N2529      O2540   1.262       .  A
N2531      O2537   1.262       .  A
N2531      O2538   1.262       .  A
C2541      C2542   1.401       .  A
C2541      C2546   1.396       .  A
C2541      H2551   1.084       .  S
C2542      C2547   1.481       .  S
C2542      C2543   1.412       .  A
C2543      C2544   1.402       .  A
C2543      N2548   1.429       .  S
C2544      C2545   1.400       .  A
C2544      H2549   1.078       .  S
C2545      C2546   1.409       .  A
C2546      N2550   1.428       .  S
C2547      C2552   1.407       .  A
C2547      C2556   1.404       .  A
N2548      O2563   1.262       .  A
N2548      O2564   1.261       .  A
N2550      O2561   1.262       .  A
N2550      O2562   1.262       .  A
C2552      C2553   1.394       .  A
C2552      N2557   1.429       .  S
C2553      C2554   1.408       .  A
C2553      H2558   1.084       .  S
C2554      C2555   1.417       .  A
C2555      C2556   1.406       .  A
C2555      N2559   1.428       .  S
C2556      H2560   1.084       .  S
N2557      O2567   1.262       .  A
N2557      O2568   1.262       .  A
N2559      O2565   1.262       .  A
N2559      O2566   1.262       .  A
C2569      C2570   1.402       .  A
C2569      C2574   1.401       .  A
C2569      H2579   1.084       .  S
C2570      C2575   1.477   1_554  S
C2570      C2571   1.407   1_554  A
C2571      C2572   1.396       .  A
C2571      N2576   1.429       .  S
C2572      C2573   1.406       .  A
C2572      H2577   1.084       .  S
C2573      C2574   1.414   1_556  A
C2574      N2578   1.428       .  S
C2575      C2580   1.404   1_556  A
C2575      C2584   1.398       .  A
N2576      O2591   1.262       .  A
N2576      O2592   1.262       .  A
N2578      O2589   1.262       .  A
N2578      O2590   1.262       .  A
C2580      C2581   1.394       .  A
C2580      N2585   1.428       .  S
C2581      C2582   1.411       .  A
C2581      H2586   1.074       .  S
C2582      C2583   1.424   1_554  A
C2583      C2584   1.401       .  A
C2583      N2587   1.431       .  S
C2584      H2588   1.084       .  S
N2585      O2595   1.262       .  A
N2585      O2596   1.262       .  A
N2587      O2593   1.262       .  A
N2587      O2594   1.262       .  A
C2597      C2598   1.401       .  A
C2597      C2602   1.403       .  A
C2597      H2607   1.084       .  S
C2598      C2603   1.487       .  S
C2598      C2599   1.414   1_554  A
C2599      C2600   1.402       .  A
C2599      N2604   1.428       .  S
C2600      C2601   1.401   1_556  A
C2600      H2605   1.084       .  S
C2601      C2602   1.417       .  A
C2602      N2606   1.429       .  S
C2603      C2608   1.413       .  A
C2603      C2612   1.399   1_554  A
N2604      O2619   1.262       .  A
N2604      O2620   1.262       .  A
N2606      O2617   1.262       .  A
N2606      O2618   1.262       .  A
C2608      C2609   1.404       .  A
C2608      N2613   1.428       .  S
C2609      C2610   1.405       .  A
C2609      H2614   1.081       .  S
C2610      C2611   1.416   1_554  A
C2611      C2612   1.398       .  A
C2611      N2615   1.426       .  S
C2612      H2616   1.084       .  S
N2613      O2623   1.262       .  A
N2613      O2624   1.262       .  A
N2615      O2621   1.262       .  A
N2615      O2622   1.262       .  A
C2625      C2626   1.397   1_556  A
C2625      C2630   1.394       .  A
C2625      H2635   1.084       .  S
C2626      C2631   1.463       .  S
C2626      C2627   1.407       .  A
C2627      C2628   1.395       .  A
C2627      N2632   1.429       .  S
C2628      C2629   1.396   1_554  A
C2628      H2633   1.072       .  S
C2629      C2630   1.407       .  A
C2630      N2634   1.427       .  S
C2631      C2636   1.403       .  A
C2631      C2640   1.392   1_554  A
N2632      O2647   1.262       .  A
N2632      O2648   1.262       .  A
N2634      O2645   1.260       .  A
N2634      O2646   1.262       .  A
C2636      C2637   1.395       .  A
C2636      N2641   1.429       .  S
C2637      C2638   1.409       .  A
C2637      H2642   1.075       .  S
C2638      C2639   1.425   1_554  A
C2639      C2640   1.394       .  A
C2639      N2643   1.431       .  S
C2640      H2644   1.085       .  S
N2641      O2651   1.262       .  A
N2641      O2652   1.262       .  A
N2643      O2649   1.262       .  A
N2643      O2650   1.262       .  A
C2653      C2654   1.397       .  A
C2653      C2658   1.396       .  A
C2653      H2663   1.084       .  S
C2654      C2659   1.477       .  S
C2654      C2655   1.417   1_554  A
C2655      C2656   1.397       .  A
C2655      N2660   1.429       .  S
C2656      C2657   1.394   1_556  A
C2656      H2661   1.084       .  S
C2657      C2658   1.416       .  A
C2658      N2662   1.430       .  S
C2659      C2664   1.417       .  A
C2659      C2668   1.392       .  A
N2660      O2675   1.262       .  A
N2660      O2676   1.262       .  A
N2662      O2673   1.261       .  A
N2662      O2674   1.261       .  A
C2664      C2665   1.405       .  A
C2664      N2669   1.428       .  S
C2665      C2666   1.399       .  A
C2665      H2670   1.084       .  S
C2666      C2667   1.412       .  A
C2667      C2668   1.387       .  A
C2667      N2671   1.423       .  S
C2668      H2672   1.084       .  S
N2669      O2679   1.262       .  A
N2669      O2680   1.262       .  A
N2671      O2677   1.261   1_565  A
N2671      O2678   1.261   1_554  A
C2681      C2682   1.401       .  A
C2681      C2686   1.403       .  A
C2681      H2691   1.082       .  S
C2682      C2687   1.498       .  S
C2682      C2683   1.413   1_545  A
C2683      C2684   1.400       .  A
C2683      N2688   1.429       .  S
C2684      C2685   1.412   1_565  A
C2684      H2689   1.077       .  S
C2685      C2686   1.422       .  A
C2686      N2690   1.428       .  S
C2687      C2692   1.419       .  A
C2687      C2696   1.403   1_545  A
N2688      O2703   1.262       .  A
N2688      O2704   1.262       .  A
N2690      O2701   1.261       .  A
N2690      O2702   1.262       .  A
C2692      C2693   1.403       .  A
C2692      N2697   1.429       .  S
C2693      C2694   1.399       .  A
C2693      H2698   1.084       .  S
C2694      C2695   1.415   1_545  A
C2695      C2696   1.402       .  A
C2695      N2699   1.428       .  S
C2696      H2700   1.082       .  S
N2697      O2707   1.262       .  A
N2697      O2708   1.262       .  A
N2699      O2705   1.260       .  A
N2699      O2706   1.261       .  A
C2709      C2710   1.398   1_565  A
C2709      C2714   1.399       .  A
C2709      H2719   1.084       .  S
C2710      C2715   1.470       .  S
C2710      C2711   1.403       .  A
C2711      C2712   1.398       .  A
C2711      N2716   1.430       .  S
C2712      C2713   1.406       .  A
C2712      H2717   1.079       .  S
C2713      C2714   1.416   1_545  A
C2714      N2718   1.428       .  S
C2715      C2720   1.400   1_545  A
C2715      C2724   1.397       .  A
N2716      O2731   1.262       .  A
N2716      O2732   1.262       .  A
N2718      O2729   1.262       .  A
N2718      O2730   1.262       .  A
C2720      C2721   1.391       .  A
C2720      N2725   1.429       .  S
C2721      C2722   1.412   1_565  A
C2721      H2726   1.073       .  S
C2722      C2723   1.423       .  A
C2723      C2724   1.399       .  A
C2723      N2727   1.430       .  S
C2724      H2728   1.084       .  S
N2725      O2735   1.262       .  A
N2725      O2736   1.262       .  A
N2727      O2733   1.262       .  A
N2727      O2734   1.262       .  A
C2737      C2738   1.407       .  A
C2737      C2742   1.404       .  A
C2737      H2747   1.082       .  S
C2738      C2743   1.496       .  S
C2738      C2739   1.415       .  A
C2739      C2740   1.398       .  A
C2739      N2744   1.429       .  S
C2740      C2741   1.404       .  A
C2740      H2745   1.084       .  S
C2741      C2742   1.414       .  A
C2742      N2746   1.429       .  S
C2743      C2748   1.414       .  A
C2743      C2752   1.406       .  A
N2744      O2759   1.262       .  A
N2744      O2760   1.262       .  A
N2746      O2757   1.262       .  A
N2746      O2758   1.262       .  A
C2748      C2749   1.398       .  A
C2748      N2753   1.428       .  S
C2749      C2750   1.402       .  A
C2749      H2754   1.084       .  S
C2750      C2751   1.417       .  A
C2751      C2752   1.405       .  A
C2751      N2755   1.429       .  S
C2752      H2756   1.083       .  S
N2753      O2763   1.262       .  A
N2753      O2764   1.262       .  A
N2755      O2761   1.262       .  A
N2755      O2762   1.262       .  A
C2765      C2766   1.403       .  A
C2765      C2770   1.405       .  A
C2765      H2775   1.084       .  S
C2766      C2771   1.491       .  S
C2766      C2767   1.413       .  A
C2767      C2768   1.402       .  A
C2767      N2772   1.428       .  S
C2768      C2769   1.403       .  A
C2768      H2773   1.084       .  S
C2769      C2770   1.416       .  A
C2770      N2774   1.429       .  S
C2771      C2776   1.413       .  A
C2771      C2780   1.408       .  A
N2772      O2787   1.262       .  A
N2772      O2788   1.262       .  A
N2774      O2785   1.262       .  A
N2774      O2786   1.262       .  A
C2776      C2777   1.402       .  A
C2776      N2781   1.428       .  S
C2777      C2778   1.398       .  A
C2777      H2782   1.080       .  S
C2778      C2779   1.407       .  A
C2779      C2780   1.406       .  A
C2779      N2783   1.429       .  S
C2780      H2784   1.084       .  S
N2781      O2791   1.262       .  A
N2781      O2792   1.261       .  A
N2783      O2789   1.261       .  A
N2783      O2790   1.261       .  A
C2793      C2794   1.401       .  A
C2793      C2798   1.398       .  A
C2793      H2803   1.084       .  S
C2794      C2799   1.476       .  S
C2794      C2795   1.408       .  A
C2795      C2796   1.397       .  A
C2795      N2800   1.428       .  S
C2796      C2797   1.401       .  A
C2796      H2801   1.084       .  S
C2797      C2798   1.411       .  A
C2798      N2802   1.429       .  S
C2799      C2804   1.407       .  A
C2799      C2808   1.395       .  A
N2800      O2815   1.262       .  A
N2800      O2816   1.262       .  A
N2802      O2813   1.262       .  A
N2802      O2814   1.262       .  A
C2804      C2805   1.407       .  A
C2804      N2809   1.430       .  S
C2805      C2806   1.408       .  A
C2805      H2810   1.084       .  S
C2806      C2807   1.414       .  A
C2807      C2808   1.397       .  A
C2807      N2811   1.427       .  S
C2808      H2812   1.084       .  S
N2809      O2819   1.261       .  A
N2809      O2820   1.262       .  A
N2811      O2817   1.261       .  A
N2811      O2818   1.262       .  A
C2821      C2822   1.400       .  A
C2821      C2826   1.401       .  A
C2821      H2831   1.083       .  S
C2822      C2827   1.488       .  S
C2822      C2823   1.408       .  A
C2823      C2824   1.397       .  A
C2823      N2828   1.429       .  S
C2824      C2825   1.411       .  A
C2824      H2829   1.074       .  S
C2825      C2826   1.425       .  A
C2826      N2830   1.430       .  S
C2827      C2832   1.411       .  A
C2827      C2836   1.406       .  A
N2828      O2843   1.262       .  A
N2828      O2844   1.262       .  A
N2830      O2841   1.262       .  A
N2830      O2842   1.262       .  A
C2832      C2833   1.394       .  A
C2832      N2837   1.429       .  S
C2833      C2834   1.405       .  A
C2833      H2838   1.084       .  S
C2834      C2835   1.414       .  A
C2835      C2836   1.403       .  A
C2835      N2839   1.429       .  S
C2836      H2840   1.083       .  S
N2837      O2847   1.262       .  A
N2837      O2848   1.262       .  A
N2839      O2845   1.262       .  A
N2839      O2846   1.262       .  A
C2849      C2850   1.403       .  A
C2849      C2854   1.401       .  A
C2849      H2859   1.084       .  S
C2850      C2855   1.479       .  S
C2850      C2851   1.410       .  A
C2851      C2852   1.394       .  A
C2851      N2856   1.430       .  S
C2852      C2853   1.404       .  A
C2852      H2857   1.084       .  S
C2853      C2854   1.413       .  A
C2854      N2858   1.429       .  S
C2855      C2860   1.408       .  A
C2855      C2864   1.395       .  A
N2856      O2871   1.262       .  A
N2856      O2872   1.262       .  A
N2858      O2869   1.262       .  A
N2858      O2870   1.262       .  A
C2860      C2861   1.398       .  A
C2860      N2865   1.429       .  S
C2861      C2862   1.410       .  A
C2861      H2866   1.075       .  S
C2862      C2863   1.424       .  A
C2863      C2864   1.395       .  A
C2863      N2867   1.429       .  S
C2864      H2868   1.084       .  S
N2865      O2875   1.262       .  A
N2865      O2876   1.262       .  A
N2867      O2873   1.260       .  A
N2867      O2874   1.262       .  A
C2877      C2878   1.407       .  A
C2877      C2882   1.410       .  A
C2877      H2887   1.084       .  S
C2878      C2883   1.495       .  S
C2878      C2879   1.412       .  A
C2879      C2880   1.401       .  A
C2879      N2884   1.428       .  S
C2880      C2881   1.404       .  A
C2880      H2885   1.084       .  S
C2881      C2882   1.412       .  A
C2882      N2886   1.428       .  S
C2883      C2888   1.409       .  A
C2883      C2892   1.403       .  A
N2884      O2899   1.261       .  A
N2884      O2900   1.262       .  A
N2886      O2897   1.262       .  A
N2886      O2898   1.262       .  A
C2888      C2889   1.405       .  A
C2888      N2893   1.428       .  S
C2889      C2890   1.410       .  A
C2889      H2894   1.083       .  S
C2890      C2891   1.424       .  A
C2891      C2892   1.409       .  A
C2891      N2895   1.429       .  S
C2892      H2896   1.084       .  S
N2893      O2903   1.262       .  A
N2893      O2904   1.261       .  A
N2895      O2901   1.262       .  A
N2895      O2902   1.262       .  A
C2905      C2906   1.406       .  A
C2905      C2910   1.405       .  A
C2905      H2915   1.084       .  S
C2906      C2911   1.488       .  S
C2906      C2907   1.411       .  A
C2907      C2908   1.400       .  A
C2907      N2912   1.428       .  S
C2908      C2909   1.403       .  A
C2908      H2913   1.084       .  S
C2909      C2910   1.414       .  A
C2910      N2914   1.430       .  S
C2911      C2916   1.414       .  A
C2911      C2920   1.403       .  A
N2912      O2927   1.262       .  A
N2912      O2928   1.262       .  A
N2914      O2925   1.262       .  A
N2914      O2926   1.261       .  A
C2916      C2917   1.403       .  A
C2916      N2921   1.428       .  S
C2917      C2918   1.401       .  A
C2917      H2922   1.084       .  S
C2918      C2919   1.414       .  A
C2919      C2920   1.401       .  A
C2919      N2923   1.429       .  S
C2920      H2924   1.084       .  S
N2921      O2931   1.262       .  A
N2921      O2932   1.261       .  A
N2923      O2929   1.262       .  A
N2923      O2930   1.262       .  A
C2933      C2934   1.399       .  A
C2933      C2938   1.402       .  A
C2933      H2943   1.084       .  S
C2934      C2939   1.472       .  S
C2934      C2935   1.402       .  A
C2935      C2936   1.395       .  A
C2935      N2940   1.429       .  S
C2936      C2937   1.411       .  A
C2936      H2941   1.083       .  S
C2937      C2938   1.420       .  A
C2938      N2942   1.429       .  S
C2939      C2944   1.403       .  A
C2939      C2948   1.400       .  A
N2940      O2955   1.262       .  A
N2940      O2956   1.262       .  A
N2942      O2953   1.262       .  A
N2942      O2954   1.262       .  A
C2944      C2945   1.392       .  A
C2944      N2949   1.427       .  S
C2945      C2946   1.406       .  A
C2945      H2950   1.083       .  S
C2946      C2947   1.419       .  A
C2947      C2948   1.402       .  A
C2947      N2951   1.429       .  S
C2948      H2952   1.084       .  S
N2949      O2959   1.262       .  A
N2949      O2960   1.261       .  A
N2951      O2957   1.261       .  A
N2951      O2958   1.262       .  A
C2961      C2962   1.400       .  A
C2961      C2966   1.400       .  A
C2961      H2971   1.084       .  S
C2962      C2967   1.482       .  S
C2962      C2963   1.409       .  A
C2963      C2964   1.403       .  A
C2963      N2968   1.428       .  S
C2964      C2965   1.407       .  A
C2964      H2969   1.084       .  S
C2965      C2966   1.418       .  A
C2966      N2970   1.429       .  S
C2967      C2972   1.411       .  A
C2967      C2976   1.401       .  A
N2968      O2983   1.262       .  A
N2968      O2984   1.261       .  A
N2970      O2981   1.262       .  A
N2970      O2982   1.262       .  A
C2972      C2973   1.400       .  A
C2972      N2977   1.427       .  S
C2973      C2974   1.401       .  A
C2973      H2978   1.084       .  S
C2974      C2975   1.416       .  A
C2975      C2976   1.399       .  A
C2975      N2979   1.430       .  S
C2976      H2980   1.084       .  S
N2977      O2987   1.262       .  A
N2977      O2988   1.261       .  A
N2979      O2985   1.262       .  A
N2979      O2986   1.262       .  A
C2989      C2990   1.399       .  A
C2989      C2994   1.402       .  A
C2989      H2999   1.084       .  S
C2990      C2995   1.476       .  S
C2990      C2991   1.403       .  A
C2991      C2992   1.392       .  A
C2991      N2996   1.429       .  S
C2992      C2993   1.411       .  A
C2992      H2997   1.072       .  S
C2993      C2994   1.424       .  A
C2994      N2998   1.430       .  S
C2995      C3000   1.406       .  A
C2995      C3004   1.399       .  A
N2996      O3011   1.262       .  A
N2996      O3012   1.262       .  A
N2998      O3009   1.262       .  A
N2998      O3010   1.262       .  A
C3000      C3001   1.398       .  A
C3000      N3005   1.428       .  S
C3001      C3002   1.408       .  A
C3001      H3006   1.084       .  S
C3002      C3003   1.417       .  A
C3003      C3004   1.398       .  A
C3003      N3007   1.428       .  S
C3004      H3008   1.084       .  S
N3005      O3015   1.262       .  A
N3005      O3016   1.262       .  A
N3007      O3013   1.261       .  A
N3007      O3014   1.262       .  A
C3017      C3018   1.400       .  A
C3017      C3022   1.402       .  A
C3017      H3027   1.084       .  S
C3018      C3023   1.482       .  S
C3018      C3019   1.405       .  A
C3019      C3020   1.398       .  A
C3019      N3024   1.426       .  S
C3020      C3021   1.407       .  A
C3020      H3025   1.084       .  S
C3021      C3022   1.418       .  A
C3022      N3026   1.428       .  S
C3023      C3028   1.406       .  A
C3023      C3032   1.403       .  A
N3024      O3039   1.260       .  A
N3024      O3040   1.261       .  A
N3026      O3037   1.261       .  A
N3026      O3038   1.262       .  A
C3028      C3029   1.395       .  A
C3028      N3033   1.428       .  S
C3029      C3030   1.405       .  A
C3029      H3034   1.084       .  S
C3030      C3031   1.415       .  A
C3031      C3032   1.406       .  A
C3031      N3035   1.427       .  S
C3032      H3036   1.084       .  S
N3033      O3043   1.262       .  A
N3033      O3044   1.262       .  A
N3035      O3041   1.262       .  A
N3035      O3042   1.262       .  A
C3045      C3046   1.393       .  A
C3045      C3050   1.392       .  A
C3045      H3055   1.084       .  S
C3046      C3051   1.473       .  S
C3046      C3047   1.407       .  A
C3047      C3048   1.410       .  A
C3047      N3052   1.430       .  S
C3048      C3049   1.410       .  A
C3048      H3053   1.084       .  S
C3049      C3050   1.415       .  A
C3050      N3054   1.428       .  S
C3051      C3056   1.411       .  A
C3051      C3060   1.398       .  A
N3052      O3067   1.262       .  A
N3052      O3068   1.262       .  A
N3054      O3065   1.261       .  A
N3054      O3066   1.262       .  A
C3056      C3057   1.396       .  A
C3056      N3061   1.429       .  S
C3057      C3058   1.396       .  A
C3057      H3062   1.080       .  S
C3058      C3059   1.412       .  A
C3059      C3060   1.397       .  A
C3059      N3063   1.428       .  S
C3060      H3064   1.084       .  S
N3061      O3071   1.262       .  A
N3061      O3072   1.261       .  A
N3063      O3069   1.262       .  A
N3063      O3070   1.262       .  A
C3073      C3074   1.397       .  A
C3073      C3078   1.401       .  A
C3073      H3083   1.084       .  S
C3074      C3079   1.478       .  S
C3074      C3075   1.402   1_545  A
C3075      C3076   1.398       .  A
C3075      N3080   1.428       .  S
C3076      C3077   1.413   1_565  A
C3076      H3081   1.077       .  S
C3077      C3078   1.425       .  A
C3078      N3082   1.430       .  S
C3079      C3084   1.406       .  A
C3079      C3088   1.399   1_545  A
N3080      O3095   1.262       .  A
N3080      O3096   1.262       .  A
N3082      O3093   1.262       .  A
N3082      O3094   1.262       .  A
C3084      C3085   1.402       .  A
C3084      N3089   1.430       .  S
C3085      C3086   1.407       .  A
C3085      H3090   1.084       .  S
C3086      C3087   1.412   1_545  A
C3087      C3088   1.402       .  A
C3087      N3091   1.426       .  S
C3088      H3092   1.084       .  S
N3089      O3099   1.262       .  A
N3089      O3100   1.262       .  A
N3091      O3097   1.260       .  A
N3091      O3098   1.260       .  A
C3101      C3102   1.405       .  A
C3101      C3106   1.404       .  A
C3101      H3111   1.084       .  S
C3102      C3107   1.480       .  S
C3102      C3103   1.407   1_545  A
C3103      C3104   1.391       .  A
C3103      N3108   1.429       .  S
C3104      C3105   1.405   1_565  A
C3104      H3109   1.084       .  S
C3105      C3106   1.414       .  A
C3106      N3110   1.429       .  S
C3107      C3112   1.405       .  A
C3107      C3116   1.399   1_545  A
N3108      O3123   1.262       .  A
N3108      O3124   1.262       .  A
N3110      O3121   1.262       .  A
N3110      O3122   1.262       .  A
C3112      C3113   1.396       .  A
C3112      N3117   1.429       .  S
C3113      C3114   1.412       .  A
C3113      H3118   1.073       .  S
C3114      C3115   1.424   1_545  A
C3115      C3116   1.398       .  A
C3115      N3119   1.431       .  S
C3116      H3120   1.084       .  S
N3117      O3127   1.262       .  A
N3117      O3128   1.262       .  A
N3119      O3125   1.262       .  A
N3119      O3126   1.261       .  A
C3129      C3130   1.401       .  A
C3129      C3134   1.402       .  A
C3129      H3139   1.084       .  S
C3130      C3135   1.482       .  S
C3130      C3131   1.408       .  A
C3131      C3132   1.399       .  A
C3131      N3136   1.427       .  S
C3132      C3133   1.405       .  A
C3132      H3137   1.084       .  S
C3133      C3134   1.421       .  A
C3134      N3138   1.430       .  S
C3135      C3140   1.410       .  A
C3135      C3144   1.403       .  A
N3136      O3151   1.262       .  A
N3136      O3152   1.261       .  A
N3138      O3149   1.262       .  A
N3138      O3150   1.262       .  A
C3140      C3141   1.399       .  A
C3140      N3145   1.428       .  S
C3141      C3142   1.404       .  A
C3141      H3146   1.084       .  S
C3142      C3143   1.413       .  A
C3143      C3144   1.401       .  A
C3143      N3147   1.430       .  S
C3144      H3148   1.084       .  S
N3145      O3155   1.262       .  A
N3145      O3156   1.262       .  A
N3147      O3153   1.262       .  A
N3147      O3154   1.262       .  A
C3157      C3158   1.399       .  A
C3157      C3162   1.399       .  A
C3157      H3167   1.084       .  S
C3158      C3163   1.469       .  S
C3158      C3159   1.405       .  A
C3159      C3160   1.394       .  A
C3159      N3164   1.428       .  S
C3160      C3161   1.405       .  A
C3160      H3165   1.084       .  S
C3161      C3162   1.416       .  A
C3162      N3166   1.429       .  S
C3163      C3168   1.407       .  A
C3163      C3172   1.398       .  A
N3164      O3179   1.262       .  A
N3164      O3180   1.262       .  A
N3166      O3177   1.262       .  A
N3166      O3178   1.262       .  A
C3168      C3169   1.398       .  A
C3168      N3173   1.428       .  S
C3169      C3170   1.401       .  A
C3169      H3174   1.084       .  S
C3170      C3171   1.413       .  A
C3171      C3172   1.397       .  A
C3171      N3175   1.429       .  S
C3172      H3176   1.084       .  S
N3173      O3183   1.262       .  A
N3173      O3184   1.261       .  A
N3175      O3181   1.262       .  A
N3175      O3182   1.262       .  A
C3185      C3186   1.405       .  A
C3185      C3190   1.403       .  A
C3185      H3195   1.082       .  S
C3186      C3191   1.500       .  S
C3186      C3187   1.418       .  A
C3187      C3188   1.403       .  A
C3187      N3192   1.430       .  S
C3188      C3189   1.404       .  A
C3188      H3193   1.084       .  S
C3189      C3190   1.414       .  A
C3190      N3194   1.428       .  S
C3191      C3196   1.417       .  A
C3191      C3200   1.406       .  A
N3192      O3207   1.262       .  A
N3192      O3208   1.262       .  A
N3194      O3205   1.262       .  A
N3194      O3206   1.262       .  A
C3196      C3197   1.399       .  A
C3196      N3201   1.430       .  S
C3197      C3198   1.403       .  A
C3197      H3202   1.083       .  S
C3198      C3199   1.414       .  A
C3199      C3200   1.403       .  A
C3199      N3203   1.429       .  S
C3200      H3204   1.081       .  S
N3201      O3211   1.262       .  A
N3201      O3212   1.262       .  A
N3203      O3209   1.262       .  A
N3203      O3210   1.262       .  A
C3213      C3214   1.405       .  A
C3213      C3218   1.409       .  A
C3213      H3223   1.084       .  S
C3214      C3219   1.494       .  S
C3214      C3215   1.410       .  A
C3215      C3216   1.402       .  A
C3215      N3220   1.428       .  S
C3216      C3217   1.404       .  A
C3216      H3221   1.084       .  S
C3217      C3218   1.417       .  A
C3218      N3222   1.428       .  S
C3219      C3224   1.412       .  A
C3219      C3228   1.403       .  A
N3220      O3235   1.262       .  A
N3220      O3236   1.261       .  A
N3222      O3233   1.261       .  A
N3222      O3234   1.262       .  A
C3224      C3225   1.403       .  A
C3224      N3229   1.428       .  S
C3225      C3226   1.406       .  A
C3225      H3230   1.084       .  S
C3226      C3227   1.421       .  A
C3227      C3228   1.408       .  A
C3227      N3231   1.429       .  S
C3228      H3232   1.084       .  S
N3229      O3239   1.262       .  A
N3229      O3240   1.261       .  A
N3231      O3237   1.262       .  A
N3231      O3238   1.262       .  A
C3241      C3242   1.409       .  A
C3241      C3246   1.405       .  A
C3241      H3251   1.083       .  S
C3242      C3247   1.494       .  S
C3242      C3243   1.416       .  A
C3243      C3244   1.395       .  A
C3243      N3248   1.429       .  S
C3244      C3245   1.400       .  A
C3244      H3249   1.084       .  S
C3245      C3246   1.411       .  A
C3246      N3250   1.431       .  S
C3247      C3252   1.411       .  A
C3247      C3256   1.398       .  A
N3248      O3263   1.262       .  A
N3248      O3264   1.262       .  A
N3250      O3261   1.262       .  A
N3250      O3262   1.262       .  A
C3252      C3253   1.403       .  A
C3252      N3257   1.428       .  S
C3253      C3254   1.410       .  A
C3253      H3258   1.075       .  S
C3254      C3255   1.426       .  A
C3255      C3256   1.401       .  A
C3255      N3259   1.429       .  S
C3256      H3260   1.083       .  S
N3257      O3267   1.262       .  A
N3257      O3268   1.261       .  A
N3259      O3265   1.262       .  A
N3259      O3266   1.262       .  A
C3269      C3270   1.402       .  A
C3269      C3274   1.396       .  A
C3269      H3279   1.082       .  S
C3270      C3275   1.488       .  S
C3270      C3271   1.421       .  A
C3271      C3272   1.399       .  A
C3271      N3276   1.429       .  S
C3272      C3273   1.394       .  A
C3272      H3277   1.084       .  S
C3273      C3274   1.407       .  A
C3274      N3278   1.427       .  S
C3275      C3280   1.415       .  A
C3275      C3284   1.396       .  A
N3276      O3291   1.262       .  A
N3276      O3292   1.262       .  A
N3278      O3289   1.261       .  A
N3278      O3290   1.262       .  A
C3280      C3281   1.401       .  A
C3280      N3285   1.431       .  S
C3281      C3282   1.411       .  A
C3281      H3286   1.076       .  S
C3282      C3283   1.421       .  A
C3283      C3284   1.394       .  A
C3283      N3287   1.429       .  S
C3284      H3288   1.082       .  S
N3285      O3295   1.263       .  A
N3285      O3296   1.262       .  A
N3287      O3293   1.262       .  A
N3287      O3294   1.262       .  A
C3297      C3298   1.400       .  A
C3297      C3302   1.396       .  A
C3297      H3307   1.084       .  S
C3298      C3303   1.477       .  S
C3298      C3299   1.412       .  A
C3299      C3300   1.400       .  A
C3299      N3304   1.429       .  S
C3300      C3301   1.403       .  A
C3300      H3305   1.084       .  S
C3301      C3302   1.406       .  A
C3302      N3306   1.425       .  S
C3303      C3308   1.409       .  A
C3303      C3312   1.401       .  A
N3304      O3319   1.262       .  A
N3304      O3320   1.262       .  A
N3306      O3317   1.261       .  A
N3306      O3318   1.261       .  A
C3308      C3309   1.392       .  A
C3308      N3313   1.428       .  S
C3309      C3310   1.401       .  A
C3309      H3314   1.084       .  S
C3310      C3311   1.417       .  A
C3311      C3312   1.401       .  A
C3311      N3315   1.430       .  S
C3312      H3316   1.084       .  S
N3313      O3323   1.262       .  A
N3313      O3324   1.262       .  A
N3315      O3321   1.261   1_556  A
N3315      O3322   1.262       .  A
C3325      C3326   1.402       .  A
C3325      C3330   1.407       .  A
C3325      H3335   1.084       .  S
C3326      C3331   1.488       .  S
C3326      C3327   1.409       .  A
C3327      C3328   1.400       .  A
C3327      N3332   1.428       .  S
C3328      C3329   1.408       .  A
C3328      H3333   1.083       .  S
C3329      C3330   1.421       .  A
C3330      N3334   1.429       .  S
C3331      C3336   1.414       .  A
C3331      C3340   1.401       .  A
N3332      O3347   1.262       .  A
N3332      O3348   1.262       .  A
N3334      O3345   1.261       .  A
N3334      O3346   1.262       .  A
C3336      C3337   1.405       .  A
C3336      N3341   1.427       .  S
C3337      C3338   1.399       .  A
C3337      H3342   1.084       .  S
C3338      C3339   1.413       .  A
C3339      C3340   1.401       .  A
C3339      N3343   1.429       .  S
C3340      H3344   1.084       .  S
N3341      O3351   1.262       .  A
N3341      O3352   1.262       .  A
N3343      O3349   1.262       .  A
N3343      O3350   1.262       .  A
C3353      C3354   1.401       .  A
C3353      C3358   1.402       .  A
C3353      H3363   1.083       .  S
C3354      C3359   1.493       .  S
C3354      C3355   1.412       .  A
C3355      C3356   1.399       .  A
C3355      N3360   1.429       .  S
C3356      C3357   1.407       .  A
C3356      H3361   1.081       .  S
C3357      C3358   1.422       .  A
C3358      N3362   1.428       .  S
C3359      C3364   1.415       .  A
C3359      C3368   1.404       .  A
N3360      O3375   1.262       .  A
N3360      O3376   1.262       .  A
N3362      O3373   1.263       .  A
N3362      O3374   1.262       .  A
C3364      C3365   1.398       .  A
C3364      N3369   1.429       .  S
C3365      C3366   1.403       .  A
C3365      H3370   1.084       .  S
C3366      C3367   1.416       .  A
C3367      C3368   1.402       .  A
C3367      N3371   1.429       .  S
C3368      H3372   1.082       .  S
N3369      O3379   1.262       .  A
N3369      O3380   1.262       .  A
N3371      O3377   1.262       .  A
N3371      O3378   1.262       .  A
C3381      C3382   1.402       .  A
C3381      C3386   1.401       .  A
C3381      H3391   1.084       .  S
C3382      C3387   1.481       .  S
C3382      C3383   1.411       .  A
C3383      C3384   1.398       .  A
C3383      N3388   1.428       .  S
C3384      C3385   1.401       .  A
C3384      H3389   1.085       .  S
C3385      C3386   1.414       .  A
C3386      N3390   1.429       .  S
C3387      C3392   1.412       .  A
C3387      C3396   1.400       .  A
N3388      O3403   1.262       .  A
N3388      O3404   1.262       .  A
N3390      O3401   1.261       .  A
N3390      O3402   1.262       .  A
C3392      C3393   1.401       .  A
C3392      N3397   1.428       .  S
C3393      C3394   1.400       .  A
C3393      H3398   1.084       .  S
C3394      C3395   1.410       .  A
C3395      C3396   1.399       .  A
C3395      N3399   1.426       .  S
C3396      H3400   1.084       .  S
N3397      O3407   1.262       .  A
N3397      O3408   1.262       .  A
N3399      O3405   1.262       .  A
N3399      O3406   1.262       .  A
