geometry optimzed in LAMMPS
_audit_creation_date              2020-11-30 
_audit_creation_method            'lammps2cif' 
_symmetry_space_group_name_H-M    'P1' 
_symmetry_Int_Tables_number       1 
_symmetry_cell_setting            triclinic 
loop_ 
_symmetry_equiv_pos_as_xyz 
  x,y,z 
_cell_length_a                    49.86745811 
_cell_length_b                    49.13925506687921 
_cell_length_c                    43.83215056373673 
_cell_angle_alpha                 88.73016171417486 
_cell_angle_beta                  90.42585123470934 
_cell_angle_gamma                 90.15482137494404 
loop_ 
_atom_site_label 
_atom_site_type_symbol 
_atom_site_fract_x 
_atom_site_fract_y 
_atom_site_fract_z 
_atom_site_charge 
Zr1        Zr  0.37934736  0.64863927  0.10901305     2.17500
O2          O  0.36967612  0.67216715  0.15602902    -0.51300
O3          O  0.35562613  0.67787737  0.07011101    -0.74500
O4          O  0.40353836  0.69064923  0.11091837    -0.81300
O5          O  0.31648973  0.60764624  0.10971002    -0.83000
O6          O  0.44391655  0.68254419  0.08974203    -0.78600
O7          O  0.33352534  0.64912696  0.12087525    -0.90300
O8          O  0.36425614  0.66267043  0.02266160    -0.76200
O9          O  0.41076388  0.65135871  0.06918724    -0.85700
O10         O  0.35999395  0.62182439  0.07038820    -0.85400
O11         O  0.41890656  0.62958711  0.13336881    -0.72200
O12         O  0.37489322  0.60399097  0.13308148    -0.84300
Zr13       Zr  0.42740763  0.56113304  0.07358804     2.26400
Zr14       Zr  0.45014236  0.63303783  0.09269477     2.06300
Zr15       Zr  0.35401027  0.57806135  0.09398858     2.10000
Zr16       Zr  0.39236320  0.62364069  0.03054631     1.78800
O17         O  0.34019296  0.54693238  0.13495889    -0.93100
O18         O  0.41967559  0.65532035  0.00051419    -0.40900
O19         O  0.38645629  0.57985351  0.05311420    -0.77500
O20         O  0.43289585  0.60586910  0.05153067    -0.96200
O21         O  0.44749284  0.58699792  0.11254366    -0.89500
O22         O  0.39496578  0.55818410  0.11371470    -0.92400
C23         C  0.35272059  0.67888017  0.04066630     1.01400
C24         C  0.31411709  0.63254432  0.11799142     1.14300
C25         C  0.42580645  0.69857967  0.09968206     1.05100
O26         O  0.49054897  0.65880532  0.08010211    -0.94500
O27         O  0.48356500  0.61173420  0.06278103    -0.90300
O28         O  0.47534157  0.56643277  0.06868789    -0.83400
C29         C  0.48944296  0.58677005  0.05946733     1.11700
O30         O  0.41187448  0.60333597  0.20185840    -0.96500
Zr31       Zr  0.41617393  0.58239919  0.15227045     1.88900
O32         O  0.44265771  0.52249989  0.10235802    -0.73200
O33         O  0.47532033  0.63652035  0.14033151    -0.52400
O34         O  0.46083944  0.58817808  0.17422411    -0.97100
O35         O  0.38842096  0.55778970  0.18930322    -0.54300
O36         O  0.43439568  0.53355366  0.15138504    -0.73700
C37         C  0.44202175  0.51637570  0.13073594     0.98700
O38         O  0.44253346  0.53943247  0.02764179    -0.62500
O39         O  0.31171330  0.56475674  0.07014118    -0.57300
O40         O  0.39409537  0.52559164  0.07446589    -0.94000
O41         O  0.35573447  0.54188822  0.05702110    -0.92400
O42         O  0.35660965  0.60728804  0.99753701    -0.92800
O43         O  0.40918158  0.60544022  0.98312543    -0.91500
C44         C  0.37654029  0.52712557  0.05378457     1.17500
H45         H  0.34282518  0.62846174  0.06318205     0.33500
H46         H  0.44476448  0.60514894  0.03432498     0.44300
H47         H  0.39136790  0.54037342  0.12253612     0.37800
H48         H  0.42435512  0.64118522  0.14982688     0.34300
H49         H  0.40737876  0.67387416  0.50264417     0.26100
H50         H  0.49225104  0.62665925  0.13669375     0.32000
H51         H  0.46913118  0.56990361  0.17406047     0.38000
H52         H  0.33995017  0.61494279  0.00595079     0.32400
H53         H  0.29821755  0.56434721  0.08659811     0.31300
H54         H  0.34155301  0.52861941  0.12612410     0.33000
H55         H  0.38588680  0.53945699  0.18080123     0.31900
H56         H  0.40754498  0.59992475  0.47139722     0.35900
H57         H  0.45379716  0.55314697  0.01687283     0.28700
H58         H  0.36326893  0.69045726  0.14948343     0.32900
H59         H  0.42235488  0.59164096  0.21622592     0.35800
H60         H  0.30662603  0.58048537  0.05682491     0.28400
H61         H  0.45536359  0.52551252  0.03530198     0.41200
H62         H  0.48804109  0.66497324  0.05860345     0.31300
H63         H  0.43842794  0.65028907  0.00557764     0.38900
H64         H  0.37054145  0.56641006  0.18741404     0.30800
H65         H  0.48069021  0.65590092  0.14128198     0.30800
H66         H  0.38736485  0.67541971  0.16571931     0.31100
Zr67       Zr  0.39938293  0.82188961  0.06979253     2.17500
O68         O  0.39139401  0.79283162  0.52182403    -0.51300
O69         O  0.37260955  0.79524263  0.10770822    -0.74500
O70         O  0.42312253  0.77954580  0.07246450    -0.81300
O71         O  0.34044295  0.86854813  0.06022082    -0.83000
O72         O  0.46676133  0.78674867  0.08494072    -0.78600
O73         O  0.35377185  0.82487742  0.05418813    -0.90300
O74         O  0.38038741  0.81005682  0.15562778    -0.76200
O75         O  0.43047019  0.81901227  0.11054002    -0.85700
O76         O  0.38075929  0.85048984  0.10683966    -0.85400
O77         O  0.44087659  0.83860695  0.04782707    -0.72200
O78         O  0.39676189  0.86607530  0.04452159    -0.84300
Zr79       Zr  0.45073337  0.90807899  0.10722821     2.26400
Zr80       Zr  0.47177926  0.83588082  0.08987125     2.06300
Zr81       Zr  0.37800356  0.89424531  0.08225698     2.10000
Zr82       Zr  0.41193725  0.84686166  0.14829422     1.78800
O83         O  0.36763685  0.92769675  0.04196984    -0.93100
O84         O  0.43515082  0.81103037  0.17725753    -0.40900
O85         O  0.40876463  0.89048592  0.12429073    -0.77500
O86         O  0.45416930  0.86292453  0.13010446    -0.96200
O87         O  0.47015835  0.88139820  0.06862758    -0.89500
O88         O  0.42007687  0.91255080  0.06539851    -0.92400
C89         C  0.36836611  0.79459941  0.13681802     1.01400
C90         C  0.33618519  0.84367406  0.05294705     1.14300
C91         C  0.44668593  0.77118953  0.07954547     1.05100
O92         O  0.50360172  0.80577533  0.11607294    -0.94500
O93         O  0.50787217  0.85666404  0.11851107    -0.90300
O94         O  0.49282617  0.89801125  0.13310165    -0.83400
C95         C  0.51004859  0.87868667  0.13337566     1.11700
O96         O  0.44832825  0.84938799  0.47572300    -0.96500
Zr97       Zr  0.43904779  0.88504357  0.02717187     1.88900
O98         O  0.46781850  0.94226659  0.07090993    -0.73200
O99         O  0.50311442  0.83275656  0.04773415    -0.52400
O100        O  0.48286782  0.87730748  0.00469285    -0.97100
O101        O  0.42141702  0.89555087  0.47470909    -0.54300
O102        O  0.45804514  0.93195463  0.02194274    -0.73700
C103        C  0.46787056  0.94798070  0.04215434     0.98700
O104        O  0.46704347  0.94639129  0.13675387    -0.62500
O105        O  0.33578575  0.90649437  0.10600821    -0.57300
O106        O  0.41848240  0.93257341  0.13679871    -0.94000
O107        O  0.37636843  0.93183941  0.11680794    -0.92400
O108        O  0.37789681  0.86574188  0.18115684    -0.92800
O109        O  0.42995242  0.86562460  0.19518662    -0.91500
C110        C  0.39360774  0.93923253  0.13668706     1.17500
H111        H  0.36292494  0.84513261  0.11301996     0.33500
H112        H  0.46502924  0.86164758  0.14834845     0.44300
H113        H  0.41780859  0.93130208  0.05885821     0.37800
H114        H  0.44655777  0.82646245  0.03210491     0.34300
H115        H  0.43087385  0.79396932  0.16661834     0.26100
H116        H  0.51643688  0.84731372  0.05146111     0.32000
H117        H  0.50258755  0.88190548  0.51416273     0.38000
H118        H  0.36653462  0.87699810  0.16723997     0.32400
H119        H  0.32443018  0.91383260  0.08913644     0.31300
H120        H  0.35533795  0.91812686  0.02795785     0.33000
H121        H  0.41495429  0.91379853  0.48024422     0.31900
H122        H  0.43403832  0.88487809  0.18988207     0.35900
H123        H  0.47020403  0.93909078  0.15772004     0.28700
H124        H  0.38778512  0.77445731  0.53060839     0.32900
H125        H  0.43263762  0.83708661  0.47765573     0.35800
H126        H  0.32725882  0.88901969  0.11216013     0.28400
H127        H  0.48512804  0.95075008  0.12881441     0.41200
H128        H  0.49556977  0.80201022  0.13633580     0.31300
H129        H  0.45440349  0.81420813  0.17307276     0.38900
H130        H  0.40498582  0.88423766  0.47363072     0.30800
H131        H  0.51306935  0.81566058  0.05198073     0.30800
H132        H  0.40880224  0.79118085  0.51132365     0.31100
Zr133      Zr  0.05209745  0.83789652  0.36690916     2.17500
O134        O  0.04498320  0.79991146  0.40284793    -0.51300
O135        O  0.09152088  0.81291680  0.34678147    -0.74500
O136        O  0.02822817  0.79920790  0.34507073    -0.81300
O137        O  0.08412165  0.87739886  0.42993534    -0.83000
O138        O  0.02327450  0.81112739  0.29518957    -0.78600
O139        O  0.05734398  0.84174183  0.42127811    -0.90300
O140        O  0.12446986  0.84379652  0.34311149    -0.76200
O141        O  0.06866935  0.84661509  0.31719403    -0.85700
O142        O  0.08641265  0.87201105  0.37138473    -0.85400
O143        O  0.01252352  0.85442503  0.34072247    -0.72200
O144        O  0.03018530  0.87748938  0.38802602    -0.84300
Zr145      Zr  0.04465929  0.93446882  0.31213754     2.26400
Zr146      Zr  0.02937542  0.86062720  0.29039707     2.06300
Zr147      Zr  0.06522151  0.91074975  0.39337631     2.10000
Zr148      Zr  0.10176408  0.88182548  0.32124743     1.78800
O149        O  0.03320526  0.92571993  0.43107930    -0.93100
O150        O  0.11399066  0.86378310  0.27194701    -0.40900
O151        O  0.08233650  0.92062115  0.34319953    -0.77500
O152        O  0.06423086  0.89459240  0.29161540    -0.96200
O153        O  0.00939118  0.90211073  0.30763174    -0.89500
O154        O  0.02891434  0.92793380  0.36324263    -0.92400
C155        C  0.11560708  0.81995091  0.33936678     1.01400
C156        C  0.07779261  0.85230110  0.43394178     1.14300
C157        C  0.02259997  0.79349189  0.31731638     1.05100
O158        O  0.04768053  0.83543393  0.24809058    -0.94500
O159        O  0.02880210  0.88800910  0.24475207    -0.90300
O160        O  0.03640897  0.93230470  0.25702489    -0.83400
C161        C  0.03199974  0.91326239  0.23782855     1.11700
O162        O  0.95989470  0.86749209  0.38180757    -0.96500
Zr163      Zr  0.99351953  0.89685547  0.35803774     1.88900
O164        O  0.00834891  0.96622795  0.31523142    -0.73200
O165        O  0.98347118  0.85311456  0.27304070    -0.52400
O166        O  0.95668474  0.88890333  0.32297377    -0.97100
O167        O  0.97373511  0.91237819  0.40528203    -0.54300
O168        O  0.97841365  0.94484391  0.34645790    -0.73700
C169        C  0.98687658  0.96598870  0.33097764     0.98700
O170        O  0.07352630  0.96591963  0.28392760    -0.62500
O171        O  0.09561757  0.93142317  0.43012776    -0.57300
O172        O  0.05319796  0.97262766  0.34395023    -0.94000
O173        O  0.08289361  0.95578875  0.37862431    -0.92400
O174        O  0.14695087  0.89144439  0.33923405    -0.92800
O175        O  0.12350081  0.91983303  0.29460394    -0.91500
C176        C  0.07358669  0.97507218  0.36122719     1.17500
H177        H  0.10167670  0.86570108  0.38315804     0.33500
H178        H  0.07145216  0.89815071  0.27156217     0.44300
H179        H  0.02252811  0.94431654  0.37250224     0.37800
H180        H  0.99857283  0.84079212  0.34091457     0.34300
H181        H  0.13358007  0.86673004  0.27040828     0.26100
H182        H  0.98506411  0.83938928  0.25695880     0.32000
H183        H  0.94128393  0.89730712  0.33323929     0.38000
H184        H  0.14452327  0.90555494  0.35475004     0.32400
H185        H  0.08826440  0.92668622  0.45049206     0.31300
H186        H  0.03068864  0.90966871  0.44482376     0.33000
H187        H  0.95557488  0.91876991  0.39932073     0.31900
H188        H  0.11669162  0.91921130  0.27335473     0.35900
H189        H  0.08187590  0.95517582  0.26771717     0.28700
H190        H  0.05355629  0.78390960  0.39368465     0.32900
H191        H  0.96832418  0.84929155  0.38315537     0.35800
H192        H  0.11256569  0.92104616  0.42891527     0.28400
H193        H  0.06106363  0.97846927  0.27301892     0.41200
H194        H  0.06734793  0.83765870  0.24995877     0.31300
H195        H  0.11173796  0.84383836  0.27415356     0.38900
H196        H  0.98356922  0.92929136  0.41006280     0.30800
H197        H  0.97470292  0.84319838  0.29017557     0.30800
H198        H  0.02548887  0.79598879  0.40239433     0.31100
Zr199      Zr  0.04689914  0.66992751  0.27793023     2.17500
O200        O  0.04140025  0.70602043  0.23907375    -0.51300
O201        O  0.08732894  0.69343603  0.29918390    -0.74500
O202        O  0.02297122  0.70954551  0.29509929    -0.81300
O203        O  0.09503642  0.62982002  0.23365603    -0.83000
O204        O  0.00519931  0.69625720  0.34037946    -0.78600
O205        O  0.06261877  0.66076763  0.22779015    -0.90300
O206        O  0.08035292  0.68027921  0.34722303    -0.76200
O207        O  0.04365465  0.66369928  0.33157971    -0.85700
O208        O  0.08173536  0.63812545  0.29109327    -0.85400
O209        O  0.00209244  0.65194116  0.28532513    -0.72200
O210        O  0.03616632  0.62842166  0.25142143    -0.84300
Zr211      Zr  0.02449824  0.57341108  0.32795182     2.26400
Zr212      Zr  0.99992427  0.64607891  0.33948443     2.06300
Zr213      Zr  0.07101281  0.59667441  0.26491479     2.10000
Zr214      Zr  0.07784301  0.63205861  0.34494714     1.78800
O215        O  0.05826591  0.57103457  0.22010797    -0.93100
O216        O  0.07654775  0.64133132  0.39942657    -0.40900
O217        O  0.06839026  0.59120109  0.31903262    -0.77500
O218        O  0.03463501  0.61440373  0.35479181    -0.96200
O219        O  0.98915450  0.60395935  0.31473385    -0.89500
O220        O  0.02736795  0.57759408  0.27397904    -0.92400
C221        C  0.09379521  0.69380948  0.32772767     1.01400
C222        C  0.08639879  0.65268357  0.22338095     1.14300
C223        C  0.01286274  0.71484530  0.32104132     1.05100
O224        O  0.98461814  0.66469885  0.38726413    -0.94500
O225        O  0.98776575  0.61863916  0.38359750    -0.90300
O226        O  0.00183719  0.57540306  0.37578896    -0.83400
C227        C  0.99095536  0.59373768  0.39184608     1.11700
O228        O  0.97169819  0.63531875  0.21961998    -0.96500
Zr229      Zr  0.99246392  0.60862459  0.26086619     1.88900
O230        O  0.99067112  0.54290404  0.30799988    -0.73200
O231        O  0.95342972  0.65332714  0.32462199    -0.52400
O232        O  0.94574267  0.61968141  0.27044772    -0.97100
O233        O  0.99709707  0.59205739  0.20912941    -0.54300
O234        O  0.97260703  0.56164091  0.26486090    -0.73700
C235        C  0.97511622  0.54183570  0.28468254     0.98700
O236        O  0.02878483  0.54001185  0.36959645    -0.62500
O237        O  0.11212336  0.57747117  0.24474383    -0.57300
O238        O  0.05563060  0.53781691  0.31526153    -0.94000
O239        O  0.09140690  0.56063356  0.29660901    -0.92400
O240        O  0.12543300  0.63716867  0.33410190    -0.92800
O241        O  0.10305007  0.60160393  0.37906812    -0.91500
C242        C  0.08079991  0.54040652  0.31115633     1.17500
H243        H  0.09930413  0.64499918  0.28585108     0.33500
H244        H  0.03557110  0.61133127  0.37655304     0.44300
H245        H  0.02530395  0.56022236  0.26430612     0.37800
H246        H  0.98916165  0.66540244  0.27852612     0.34300
H247        H  0.09426305  0.64933830  0.40432275     0.26100
H248        H  0.94322729  0.64945957  0.34352690     0.32000
H249        H  0.93911554  0.60469685  0.28387499     0.38000
H250        H  0.13159685  0.61857213  0.32955112     0.32400
H251        H  0.11189762  0.58169662  0.22254727     0.31300
H252        H  0.06285117  0.55192627  0.22550151     0.33000
H253        H  0.99835423  0.57201437  0.21148178     0.31900
H254        H  0.09129478  0.58548011  0.38184511     0.35900
H255        H  0.02100782  0.52302363  0.36156158     0.28700
H256        H  0.04749586  0.72320180  0.24829819     0.32900
H257        H  0.97866984  0.65401512  0.22222918     0.35800
H258        H  0.12675103  0.58886908  0.25303894     0.28400
H259        H  0.04820060  0.53640443  0.37210867     0.41200
H260        H  0.00129317  0.66948404  0.39836983     0.31300
H261        H  0.06384861  0.65667307  0.40115123     0.38900
H262        H  0.01523584  0.59791116  0.20269515     0.30800
H263        H  0.95199415  0.67327710  0.32141339     0.30800
H264        H  0.02179783  0.70810085  0.23608794     0.31100
Zr265      Zr  0.18580629  0.76692208  0.40676091     2.17500
O266        O  0.18094779  0.80605626  0.37199734    -0.51300
O267        O  0.15555574  0.73661509  0.38032992    -0.74500
O268        O  0.20701715  0.75644294  0.35869091    -0.81300
O269        O  0.13698705  0.79375308  0.46667931    -0.83000
O270        O  0.24974603  0.74087862  0.36535683    -0.78600
O271        O  0.14253424  0.78774455  0.41563338    -0.90300
O272        O  0.16017901  0.69654247  0.40668933    -0.76200
O273        O  0.21163800  0.72646430  0.41024242    -0.85700
O274        O  0.16609976  0.74118246  0.44758438    -0.85400
O275        O  0.23141507  0.78071493  0.41529989    -0.72200
O276        O  0.18893300  0.79404957  0.45149274    -0.84300
Zr277      Zr  0.24063921  0.74175567  0.50437771     2.26400
Zr278      Zr  0.25717872  0.73940058  0.42098642     2.06300
Zr279      Zr  0.17088910  0.76704183  0.49312851     2.10000
Zr280      Zr  0.19151450  0.70063968  0.44992134     1.78800
O281        O  0.14990057  0.80194159  0.52327726    -0.93100
O282        O  0.21216174  0.66539028  0.41980773    -0.40900
O283        O  0.19588969  0.72586587  0.49629005    -0.77500
O284        O  0.23723740  0.71279919  0.46126849    -0.96200
O285        O  0.26042615  0.76769959  0.46414144    -0.89500
O286        O  0.21558488  0.78254268  0.50141054    -0.92400
C287        C  0.15005987  0.71138844  0.38488328     1.01400
C288        C  0.12990995  0.79698355  0.43865685     1.14300
C289        C  0.22943718  0.74758879  0.34845966     1.05100
O290        O  0.27602620  0.69781426  0.40117384    -0.94500
O291        O  0.29558001  0.72216421  0.45266503    -0.90300
O292        O  0.28513409  0.72566169  0.50274302    -0.83400
C293        C  0.30110260  0.71953072  0.48152139     1.11700
O294        O  0.22148138  0.84706350  0.42794428    -0.96500
Zr295      Zr  0.23418366  0.80791851  0.45987899     1.88900
O296        O  0.27431096  0.77311986  0.02797266    -0.73200
O297        O  0.29362815  0.76732127  0.40089414    -0.52400
O298        O  0.27027665  0.83119387  0.43249893    -0.97100
O299        O  0.21779815  0.84430950  0.49173499    -0.54300
O300        O  0.26903219  0.81277435  0.49776780    -0.73700
C301        C  0.28056661  0.79823022  0.02356544     0.98700
O302        O  0.24901941  0.70068798  0.03789607    -0.62500
O303        O  0.13514121  0.74720659  0.01122505    -0.57300
O304        O  0.22483441  0.74891334  0.05356906    -0.94000
O305        O  0.18140363  0.76180963  0.04850036    -0.92400
O306        O  0.15143478  0.67992726  0.47190250    -0.92800
O307        O  0.19840366  0.66078328  0.48283698    -0.91500
C308        C  0.20222501  0.75534856  0.06462376     1.17500
H309        H  0.14740575  0.73739309  0.44354064     0.33500
H310        H  0.24748143  0.69639178  0.46500503     0.44300
H311        H  0.22236148  0.79329051  0.02060509     0.37800
H312        H  0.23769311  0.79118739  0.39785353     0.34300
H313        H  0.19785550  0.65163397  0.41708878     0.26100
H314        H  0.28708157  0.78625947  0.40194763     0.32000
H315        H  0.28705634  0.82470510  0.44239770     0.38000
H316        H  0.14802032  0.66358058  0.45962657     0.32400
H317        H  0.12429329  0.74396950  0.99265067     0.31300
H318        H  0.15880297  0.80729065  0.03919907     0.33000
H319        H  0.22954411  0.84415049  0.51004454     0.31900
H320        H  0.20812687  0.66786555  0.50077219     0.35900
H321        H  0.23088480  0.69666564  0.04588458     0.28700
H322        H  0.19948132  0.81112306  0.36619820     0.32900
H323        H  0.20167182  0.84621587  0.42665245     0.35800
H324        H  0.11778790  0.74803479  0.50532639     0.28400
H325        H  0.25250001  0.68561826  0.02382877     0.41200
H326        H  0.29423876  0.70311887  0.39437430     0.31300
H327        H  0.21447693  0.67375161  0.39922455     0.38900
H328        H  0.20022338  0.83774817  0.49930599     0.30800
H329        H  0.30788285  0.76607498  0.41669900     0.30800
H330        H  0.17497292  0.82113024  0.38490586     0.31100
Zr331      Zr  0.18643879  0.73754060  0.25308927     2.17500
O332        O  0.17002780  0.70100933  0.28659154    -0.51300
O333        O  0.16253409  0.77168459  0.27913499    -0.74500
O334        O  0.20722612  0.74026769  0.30272765    -0.81300
O335        O  0.13767483  0.71756894  0.19033057    -0.83000
O336        O  0.25216815  0.74805336  0.29960230    -0.78600
O337        O  0.14118549  0.72279502  0.24171800    -0.90300
O338        O  0.18054152  0.81097460  0.26014268    -0.76200
O339        O  0.22002191  0.77202157  0.25283627    -0.85700
O340        O  0.17304242  0.76892546  0.21363056    -0.85400
O341        O  0.22830080  0.71482936  0.24682185    -0.72200
O342        O  0.18436333  0.71202432  0.20782103    -0.84300
Zr343      Zr  0.24740656  0.75314473  0.15925847     2.26400
Zr344      Zr  0.26212915  0.75016643  0.24407174     2.06300
Zr345      Zr  0.17305027  0.74382654  0.16743833     2.10000
Zr346      Zr  0.20680697  0.80292859  0.21359351     1.78800
O347        O  0.14895721  0.71491776  0.13193196    -0.93100
O348        O  0.23419911  0.83604863  0.24049309    -0.40900
O349        O  0.20687924  0.77820938  0.16665202    -0.77500
O350        O  0.24912952  0.78125009  0.20358706    -0.96200
O351        O  0.26013500  0.72268838  0.19965924    -0.89500
O352        O  0.21363318  0.71928061  0.15993957    -0.92400
C353        C  0.16577011  0.79738592  0.27923535     1.01400
C354        C  0.12946714  0.71409471  0.21768641     1.14300
C355        C  0.23022815  0.74471033  0.31484148     1.05100
O356        O  0.28606116  0.78560099  0.27128999    -0.94500
O357        O  0.30349731  0.76349890  0.21499202    -0.90300
O358        O  0.29442040  0.76213005  0.16412268    -0.83400
C359        C  0.31037978  0.76609303  0.18652964     1.11700
O360        O  0.20616515  0.65339355  0.23375432    -0.96500
Zr361      Zr  0.22545008  0.68906213  0.20124347     1.88900
O362        O  0.26700276  0.71323593  0.13595587    -0.73200
O363        O  0.29240629  0.71442673  0.26211985    -0.52400
O364        O  0.25895746  0.65940668  0.22502400    -0.97100
O365        O  0.19667299  0.65636436  0.17569650    -0.54300
O366        O  0.25228419  0.67454635  0.15974315    -0.73700
C367        C  0.26610212  0.68720757  0.13956995     0.98700
O368        O  0.26679888  0.78759748  0.12491588    -0.62500
O369        O  0.13874979  0.77876359  0.16032833    -0.57300
O370        O  0.22555355  0.75480657  0.11028403    -0.94000
O371        O  0.18026739  0.75297785  0.11316058    -0.92400
O372        O  0.16912648  0.83013594  0.19480543    -0.92800
O373        O  0.21852546  0.84048099  0.17876648    -0.91500
C374        C  0.20214000  0.75480367  0.09812285     1.17500
H375        H  0.15553500  0.77635773  0.21760118     0.33500
H376        H  0.26262605  0.79521499  0.20079924     0.44300
H377        H  0.21273798  0.70969448  0.14097426     0.37800
H378        H  0.23166621  0.70274530  0.26410149     0.34300
H379        H  0.23888729  0.82687521  0.26014747     0.26100
H380        H  0.28057091  0.69907454  0.26819673     0.32000
H381        H  0.27639397  0.66763402  0.21928751     0.38000
H382        H  0.15454050  0.82682760  0.20963663     0.32400
H383        H  0.13962138  0.78404960  0.13842843     0.31300
H384        H  0.13445672  0.72649339  0.12320632     0.33000
H385        H  0.20872412  0.64120943  0.17044674     0.31900
H386        H  0.21733753  0.83276654  0.15810935     0.35900
H387        H  0.27311899  0.77758937  0.10696827     0.28700
H388        H  0.16589730  0.70978372  0.30609502     0.32900
H389        H  0.19039212  0.66194053  0.24316736     0.35800
H390        H  0.12150799  0.76887759  0.16240029     0.28400
H391        H  0.25158446  0.79876249  0.11720266     0.41200
H392        H  0.28592334  0.80157962  0.25712505     0.31300
H393        H  0.25133465  0.83704207  0.22925206     0.38900
H394        H  0.19191361  0.66511804  0.15584787     0.30800
H395        H  0.30142003  0.70823113  0.24346765     0.30800
H396        H  0.18590457  0.68955242  0.29122768     0.31100
Zr397      Zr  0.59033166  0.96006445  0.19180809     2.17500
O398        O  0.55487832  0.97287825  0.15545649    -0.51300
O399        O  0.55945271  0.98845439  0.21916632    -0.74500
O400        O  0.55760119  0.92437125  0.18619586    -0.81300
O401        O  0.64000089  0.00764675  0.14871885    -0.83000
O402        O  0.56559556  0.88896250  0.21931806    -0.78600
O403        O  0.59915481  0.98724395  0.14664460    -0.90300
O404        O  0.57151707  0.99294308  0.26857492    -0.76200
O405        O  0.59019194  0.94321597  0.24302615    -0.85700
O406        O  0.61809929  0.99171604  0.21783620    -0.85400
O407        O  0.60767421  0.91451983  0.18860352    -0.72200
O408        O  0.63296595  0.95959145  0.16760594    -0.84300
Zr409      Zr  0.68047838  0.92648459  0.24107312     2.26400
Zr410      Zr  0.60978018  0.89863741  0.24092166     2.06300
Zr411      Zr  0.66192241  0.98932122  0.19481200     2.10000
Zr412      Zr  0.61826266  0.97439837  0.26905916     1.78800
O413        O  0.68796015  0.01437832  0.15657539    -0.93100
O414        O  0.59830068  0.95652541  0.31601681    -0.40900
O415        O  0.66257355  0.97186749  0.24607548    -0.77500
O416        O  0.63819069  0.92945818  0.26774607    -0.96200
O417        O  0.65135987  0.89715271  0.21444315    -0.89500
O418        O  0.67913354  0.94417559  0.19022568    -0.92400
C419        C  0.55478849  0.99648059  0.24619067     1.01400
C420        C  0.61734486  0.00302185  0.13566666     1.14300
C421        C  0.55205817  0.90101828  0.19801036     1.05100
O422        O  0.58554927  0.89384127  0.28878156    -0.94500
O423        O  0.63924591  0.86828548  0.27077844    -0.90300
O424        O  0.67961371  0.88914588  0.27675888    -0.83400
C425        C  0.66327762  0.86948629  0.28152988     1.11700
O426        O  0.62570503  0.92239666  0.11537756    -0.96500
Zr427      Zr  0.64959432  0.91495033  0.16356306     1.88900
O428        O  0.70363012  0.88761393  0.21621911    -0.73200
O429        O  0.60533184  0.85006156  0.23210533    -0.52400
O430        O  0.63182200  0.87209827  0.14488533    -0.97100
O431        O  0.67968812  0.92798327  0.12211165    -0.54300
O432        O  0.68474325  0.88232470  0.16946402    -0.73700
C433        C  0.70121607  0.87510409  0.19057180     0.98700
O434        O  0.70942145  0.93411048  0.28530896    -0.62500
O435        O  0.66036546  0.03234260  0.22116634    -0.57300
O436        O  0.72175935  0.95024458  0.22979072    -0.94000
O437        O  0.71081111  0.98977255  0.20479612    -0.92400
O438        O  0.62357901  0.02309894  0.27662440    -0.92800
O439        O  0.64527955  0.98387192  0.31413555    -0.91500
C440        C  0.72790616  0.97299104  0.21680626     1.17500
H441        H  0.61078498  0.00988697  0.21630471     0.33500
H442        H  0.64048053  0.92298046  0.28857545     0.44300
H443        H  0.69646606  0.94394927  0.18064439     0.37800
H444        H  0.59755160  0.90236298  0.17594778     0.34300
H445        H  0.59463776  0.97276373  0.32829308     0.26100
H446        H  0.58888321  0.84433216  0.24303675     0.32000
H447        H  0.62949120  0.86049696  0.16343837     0.38000
H448        H  0.60853532  0.02812631  0.28998317     0.32400
H449        H  0.67894657  0.03513700  0.22860894     0.31300
H450        H  0.69453934  0.03082677  0.16694427     0.33000
H451        H  0.69777477  0.92948992  0.13134888     0.31900
H452        H  0.65847957  0.96886198  0.31532995     0.35900
H453        H  0.71327101  0.95389929  0.28512650     0.28700
H454        H  0.53807004  0.97334594  0.16731224     0.32900
H455        H  0.60695654  0.92616195  0.12124315     0.35800
H456        H  0.65791565  0.04628030  0.20473730     0.28400
H457        H  0.69762741  0.93145929  0.30320676     0.41200
H458        H  0.57185602  0.87967260  0.28493577     0.31300
H459        H  0.58031544  0.94999282  0.30980986     0.38900
H460        H  0.67463933  0.94696597  0.11664833     0.30800
H461        H  0.60073854  0.84868327  0.21018561     0.30800
H462        H  0.55263356  0.95730809  0.14167962     0.31100
Zr463      Zr  0.93609157  0.94511854  0.23390467     2.17500
O464        O  0.96772800  0.93689019  0.27501013    -0.51300
O465        O  0.96447460  0.98251336  0.21852096    -0.74500
O466        O  0.97624992  0.92455088  0.21321733    -0.81300
O467        O  0.88181636  0.98402451  0.27345725    -0.83000
O468        O  0.96867214  0.89115659  0.17912547    -0.78600
O469        O  0.92193070  0.96316374  0.28280919    -0.90300
O470        O  0.96458833  0.97841159  0.16748117    -0.76200
O471        O  0.93821503  0.93270227  0.18267401    -0.85700
O472        O  0.91020766  0.97915100  0.20757565    -0.85400
O473        O  0.92161157  0.89868130  0.23068193    -0.72200
O474        O  0.89138558  0.94083928  0.25095916    -0.84300
Zr475      Zr  0.85029860  0.91498905  0.17242131     2.26400
Zr476      Zr  0.92054964  0.88821294  0.17725100     2.06300
Zr477      Zr  0.86436591  0.97295543  0.22338894     2.10000
Zr478      Zr  0.91558575  0.96675053  0.15584624     1.78800
O479        O  0.83884393  0.00228981  0.25663928    -0.93100
O480        O  0.94107453  0.95379979  0.11124932    -0.40900
O481        O  0.86885171  0.96050555  0.17168024    -0.77500
O482        O  0.89463484  0.92219855  0.15047217    -0.96200
O483        O  0.87725756  0.88265017  0.19914812    -0.89500
O484        O  0.84852033  0.92691281  0.22435596    -0.92400
C485        C  0.97645988  0.98486072  0.19291058     1.01400
C486        C  0.90138628  0.97693900  0.29111441     1.14300
C487        C  0.98420555  0.90691421  0.19396015     1.05100
O488        O  0.93858889  0.88230393  0.12645595    -0.94500
O489        O  0.89036283  0.85640948  0.15260324    -0.90300
O490        O  0.86012212  0.88514861  0.13186970    -0.83400
C491        C  0.86952931  0.86136692  0.13618327     1.11700
O492        O  0.89913076  0.89350208  0.30069631    -0.96500
Zr493      Zr  0.87728942  0.89539073  0.25093297     1.88900
O494        O  0.82351100  0.87576602  0.19398732    -0.73200
O495        O  0.93513378  0.84424422  0.19778780    -0.52400
O496        O  0.89325574  0.84968657  0.26335016    -0.97100
O497        O  0.84550856  0.90270785  0.29207987    -0.54300
O498        O  0.84071964  0.86634050  0.24105888    -0.73700
C499        C  0.82425866  0.86181778  0.21945391     0.98700
O500        O  0.81853698  0.92329647  0.13064188    -0.62500
O501        O  0.86404089  0.01491557  0.19235425    -0.57300
O502        O  0.80882800  0.93921148  0.17871170    -0.94000
O503        O  0.81552070  0.97087531  0.21485443    -0.92400
O504        O  0.91415126  0.01623873  0.15293716    -0.92800
O505        O  0.89500172  0.98180294  0.10790633    -0.91500
C506        C  0.80037375  0.95750292  0.19655662     1.17500
H507        H  0.91672237  0.99722885  0.21136328     0.33500
H508        H  0.89460180  0.91857954  0.12889634     0.44300
H509        H  0.83067098  0.92503852  0.23250917     0.37800
H510        H  0.93375785  0.88677844  0.24183488     0.34300
H511        H  0.94940242  0.97095946  0.10369360     0.26100
H512        H  0.94143099  0.83434914  0.17977425     0.32000
H513        H  0.89194691  0.83988851  0.24389635     0.38000
H514        H  0.93241887  0.02172548  0.14654242     0.32400
H515        H  0.86058857  0.00960185  0.17104239     0.31300
H516        H  0.84583564  0.02094818  0.25298696     0.33000
H517        H  0.84578883  0.88554944  0.30436530     0.31900
H518        H  0.87660247  0.98721241  0.11351355     0.35900
H519        H  0.82967056  0.92747167  0.11251758     0.28700
H520        H  0.98379633  0.94719137  0.26832095     0.32900
H521        H  0.89545333  0.91134092  0.30985270     0.35800
H522        H  0.84740527  0.02440023  0.19812315     0.28400
H523        H  0.81019436  0.90541758  0.12658355     0.41200
H524        H  0.94293959  0.86269362  0.12568040     0.31300
H525        H  0.95627791  0.94298073  0.11960331     0.38900
H526        H  0.82754946  0.90290352  0.28231013     0.30800
H527        H  0.95161361  0.84802812  0.20969395     0.30800
H528        H  0.97262048  0.91758888  0.27251384     0.31100
Zr529      Zr  0.57647325  0.52347627  0.49948561     2.17500
O530        O  0.53864654  0.50879024  0.02320331    -0.51300
O531        O  0.54493303  0.50149922  0.46406891    -0.74500
O532        O  0.54398862  0.55928130  0.49813425    -0.81300
O533        O  0.62369247  0.47207900  0.54152118    -0.83000
O534        O  0.55727112  0.59920870  0.47641857    -0.78600
O535        O  0.58354287  0.49359823  0.54464411    -0.90300
O536        O  0.55913466  0.50842776  0.41550552    -0.76200
O537        O  0.58124285  0.54651656  0.45183036    -0.85700
O538        O  0.60340225  0.49324720  0.47128612    -0.85400
O539        O  0.59573297  0.56707329  0.51114820    -0.72200
O540        O  0.61819376  0.51967325  0.52551146    -0.84300
Zr541      Zr  0.67123093  0.55664340  0.46289226     2.26400
Zr542      Zr  0.60278041  0.58898574  0.46227557     2.06300
Zr543      Zr  0.64630922  0.49077647  0.49713649     2.10000
Zr544      Zr  0.60805360  0.51673059  0.42330781     1.78800
O545        O  0.66646711  0.45451148  0.52844685    -0.93100
O546        O  0.59728730  0.54156593  0.37610716    -0.40900
O547        O  0.65150354  0.51360489  0.44903174    -0.77500
O548        O  0.63036363  0.55969278  0.43304364    -0.96200
O549        O  0.64306255  0.58509554  0.49151134    -0.89500
O550        O  0.66568113  0.53363936  0.51055653    -0.92400
C551        C  0.54060633  0.50242582  0.43495613     1.01400
C552        C  0.60162769  0.47698070  0.55505453     1.14300
C553        C  0.53991461  0.58393449  0.48957825     1.05100
O554        O  0.58020041  0.60472395  0.41568845    -0.94500
O555        O  0.63388576  0.61951919  0.43636609    -0.90300
O556        O  0.67561749  0.60113521  0.44001465    -0.83400
C557        C  0.65933497  0.62024275  0.43248731     1.11700
O558        O  0.61056488  0.55014347  0.07990043    -0.96500
Zr559      Zr  0.63693798  0.56181879  0.53901645     1.88900
O560        O  0.69860574  0.58547287  0.49658592    -0.73200
O561        O  0.60269197  0.63347236  0.48564462    -0.52400
O562        O  0.62352649  0.60457264  0.56149936    -0.97100
O563        O  0.66724196  0.53746625  0.07492299    -0.54300
O564        O  0.67791617  0.58732140  0.54243123    -0.73700
C565        C  0.69676183  0.59396480  0.52417032     0.98700
O566        O  0.69904171  0.55501375  0.41743004    -0.62500
O567        O  0.64192723  0.45305125  0.46224366    -0.57300
O568        O  0.70984898  0.52890285  0.47412613    -0.94000
O569        O  0.69540787  0.48920057  0.49603006    -0.92400
O570        O  0.60480696  0.46817220  0.41346067    -0.92800
O571        O  0.63624300  0.50496092  0.38051592    -0.91500
C572        C  0.71393376  0.50578535  0.48742995     1.17500
H573        H  0.59480438  0.47568792  0.46984556     0.33500
H574        H  0.63426166  0.56842782  0.41361854     0.44300
H575        H  0.68213493  0.53185812  0.52213916     0.37800
H576        H  0.58406426  0.57764968  0.52373829     0.34300
H577        H  0.58927296  0.52781880  0.36257920     0.26100
H578        H  0.58835028  0.64381706  0.47484320     0.32000
H579        H  0.62842918  0.61572658  0.04446152     0.38000
H580        H  0.59187558  0.46674578  0.39632538     0.32400
H581        H  0.66056568  0.44758100  0.45781595     0.31300
H582        H  0.67318803  0.44099310  0.51396655     0.33000
H583        H  0.68593053  0.54240118  0.06962727     0.31900
H584        H  0.65360758  0.51398807  0.38476175     0.35900
H585        H  0.70236271  0.53541190  0.41434811     0.28700
H586        H  0.52266110  0.51618808  0.01238423     0.32900
H587        H  0.62064488  0.55706387  0.09767361     0.35800
H588        H  0.63455130  0.43783986  0.47480745     0.28400
H589        H  0.68685976  0.56036295  0.40039637     0.41200
H590        H  0.59304545  0.60116553  0.39913983     0.31300
H591        H  0.58206700  0.55338983  0.38147381     0.38900
H592        H  0.66593383  0.51777420  0.07081863     0.30800
H593        H  0.59569998  0.63010069  0.50646930     0.30800
H594        H  0.53945826  0.51825107  0.04288666     0.31100
Zr595      Zr  0.91679197  0.50238092  0.46034336     2.17500
O596        O  0.93258822  0.47865003  0.41625667    -0.51300
O597        O  0.95601400  0.48975003  0.48882381    -0.74500
O598        O  0.95514820  0.52590870  0.44064834    -0.81300
O599        O  0.86018225  0.45408739  0.45776204    -0.83000
O600        O  0.95394242  0.56195473  0.47123561    -0.78600
O601        O  0.90450083  0.45496862  0.46558264    -0.90300
O602        O  0.95153083  0.51620252  0.03302456    -0.76200
O603        O  0.92556861  0.53936682  0.49291704    -0.85700
O604        O  0.89353562  0.49083503  0.50616680    -0.85400
O605        O  0.90280573  0.54324707  0.43295003    -0.72200
O606        O  0.87084173  0.49867168  0.44482592    -0.84300
Zr607      Zr  0.83918955  0.56462093  0.49379044     2.26400
Zr608      Zr  0.90880393  0.57980074  0.46844049     2.06300
Zr609      Zr  0.84686442  0.48914643  0.49152239     2.10000
Zr610      Zr  0.90276055  0.52978470  0.03871434     1.78800
O611        O  0.81548179  0.45095698  0.48895073    -0.93100
O612        O  0.92523508  0.56566296  0.06655911    -0.40900
O613        O  0.85616807  0.52642470  0.52373217    -0.77500
O614        O  0.88402273  0.57005554  0.01382960    -0.96200
O615        O  0.86421761  0.57548359  0.44972906    -0.89500
O616        O  0.83169862  0.52761851  0.46129969    -0.92400
C617        C  0.96392225  0.49908450  0.01583632     1.01400
C618        C  0.88385733  0.44626429  0.45164001     1.14300
C619        C  0.96471401  0.54827132  0.45016573     1.05100
O620        O  0.93977591  0.61622502  0.98319770    -0.94500
O621        O  0.88934284  0.62291597  0.98796975    -0.90300
O622        O  0.84537241  0.61430315  0.99727182    -0.83400
C623        C  0.86543275  0.63033603  0.99508962     1.11700
O624        O  0.87192064  0.50897360  0.37571924    -0.96500
Zr625      Zr  0.85723989  0.53826696  0.41662161     1.88900
O626        O  0.81567233  0.59032963  0.45153125    -0.73200
O627        O  0.91493341  0.60275374  0.41902993    -0.52400
O628        O  0.87736643  0.56043836  0.37196484    -0.97100
O629        O  0.81633674  0.51946680  0.39405995    -0.54300
O630        O  0.82750526  0.57552780  0.40483827    -0.73700
C631        C  0.81489054  0.59174434  0.42189906     0.98700
O632        O  0.81879814  0.58503584  0.04043231    -0.62500
O633        O  0.85283555  0.46612379  0.54094845    -0.57300
O634        O  0.79618699  0.54470891  0.50539509    -0.94000
O635        O  0.79960457  0.49891001  0.50056809    -0.92400
O636        O  0.90460232  0.49014810  0.07294051    -0.92800
O637        O  0.88719844  0.53865798  0.08994919    -0.91500
C638        C  0.78617527  0.52071324  0.50502233     1.17500
H639        H  0.89975884  0.47399125  0.51548567     0.33500
H640        H  0.88524811  0.58480453  0.02797275     0.44300
H641        H  0.81315942  0.52615963  0.45529222     0.37800
H642        H  0.91388791  0.54637243  0.41521045     0.34300
H643        H  0.93805541  0.55596015  0.08027568     0.26100
H644        H  0.89683818  0.60306732  0.40958593     0.32000
H645        H  0.86334423  0.57256007  0.36319184     0.38000
H646        H  0.92264802  0.48235996  0.06988638     0.32400
H647        H  0.83442347  0.46340450  0.54877075     0.31300
H648        H  0.82516982  0.43490955  0.49746565     0.33000
H649        H  0.81430702  0.52937957  0.37426166     0.31900
H650        H  0.86792485  0.54292341  0.08724927     0.35900
H651        H  0.81493816  0.56893650  0.05368656     0.28700
H652        H  0.95156989  0.47468601  0.42137189     0.32900
H653        H  0.85561379  0.50081971  0.36669983     0.35800
H654        H  0.85909862  0.44760693  0.53615479     0.28400
H655        H  0.83373910  0.59428566  0.05106826     0.41200
H656        H  0.94223088  0.61345400  0.00549411     0.31300
H657        H  0.93667717  0.57492722  0.05114074     0.38900
H658        H  0.80113955  0.52597978  0.40626799     0.30800
H659        H  0.91849888  0.62200111  0.42397012     0.30800
H660        H  0.93330387  0.49300220  0.40008508     0.31100
Zr661      Zr  0.76701075  0.70961980  0.38696616     2.17500
O662        O  0.80386234  0.69910868  0.42231424    -0.51300
O663        O  0.73350054  0.67946951  0.40958113    -0.74500
O664        O  0.76154602  0.73057092  0.43537220    -0.81300
O665        O  0.78642200  0.65349647  0.33556720    -0.83000
O666        O  0.75642574  0.77617026  0.42988318    -0.78600
O667        O  0.78503683  0.66513409  0.38543797    -0.90300
O668        O  0.69460840  0.68488111  0.38292349    -0.76200
O669        O  0.72722471  0.73577381  0.38388859    -0.85700
O670        O  0.74191712  0.69027861  0.34643761    -0.85400
O671        O  0.78362221  0.75484591  0.37822256    -0.72200
O672        O  0.79607374  0.71255810  0.34341493    -0.84300
Zr673      Zr  0.74358031  0.76712324  0.29005190     2.26400
Zr674      Zr  0.74343099  0.78126671  0.37550095     2.06300
Zr675      Zr  0.77004781  0.69332437  0.30296379     2.10000
Zr676      Zr  0.70254145  0.71714507  0.34215709     1.78800
O677        O  0.80983348  0.67628051  0.27790559    -0.93100
O678        O  0.66235061  0.73281338  0.36775017    -0.40900
O679        O  0.72994112  0.72043115  0.29778080    -0.77500
O680        O  0.71627902  0.76317881  0.33485560    -0.96200
O681        O  0.76978488  0.78616744  0.32997851    -0.89500
O682        O  0.78319332  0.73974727  0.29288227    -0.92400
C683        C  0.70887096  0.67369991  0.40402957     1.01400
C684        C  0.78982115  0.64818778  0.36462223     1.14300
C685        C  0.76029522  0.75446165  0.44624700     1.05100
O686        O  0.70592057  0.79272320  0.40802023    -0.94500
O687        O  0.71992742  0.81851455  0.34948970    -0.90300
O688        O  0.71978195  0.80950455  0.29861904    -0.83400
C689        C  0.71321916  0.82377573  0.32165316     1.11700
O690        O  0.84860390  0.75005798  0.36367347    -0.96500
Zr691      Zr  0.80910398  0.75892290  0.33207419     1.88900
O692        O  0.77487301  0.79766358  0.26368783    -0.73200
O693        O  0.76695166  0.82309786  0.38814379    -0.52400
O694        O  0.82643580  0.80150306  0.35189482    -0.97100
O695        O  0.84756987  0.74046085  0.30543957    -0.54300
O696        O  0.81480568  0.78777446  0.28649128    -0.73700
C697        C  0.80043903  0.80001672  0.26594662     0.98700
O698        O  0.70548366  0.77435322  0.25550104    -0.62500
O699        O  0.74332931  0.65632745  0.28265305    -0.57300
O700        O  0.75084883  0.74635274  0.24159380    -0.94000
O701        O  0.76497836  0.70239065  0.24725333    -0.92400
O702        O  0.68256721  0.67667683  0.31980735    -0.92800
O703        O  0.66907145  0.73099759  0.30404210    -0.91500
C704        C  0.75852890  0.72361954  0.23085760     1.17500
H705        H  0.73750868  0.67144314  0.35064591     0.33500
H706        H  0.69980574  0.77329077  0.33247674     0.44300
H707        H  0.79332769  0.74091873  0.27422460     0.37800
H708        H  0.79481860  0.76037751  0.39507349     0.34300
H709        H  0.64865769  0.71869741  0.36362078     0.26100
H710        H  0.75436011  0.83284760  0.40140368     0.32000
H711        H  0.81369695  0.81564123  0.34449057     0.38000
H712        H  0.69278361  0.66104950  0.32848170     0.32400
H713        H  0.73828063  0.64508035  0.30072871     0.31300
H714        H  0.80279345  0.66344423  0.26266446     0.33000
H715        H  0.84333538  0.74270710  0.28342630     0.31900
H716        H  0.67490045  0.72262289  0.28485337     0.35900
H717        H  0.70142029  0.75625300  0.24710336     0.28700
H718        H  0.79550344  0.69285002  0.44167725     0.32900
H719        H  0.84206263  0.73807109  0.38049227     0.35800
H720        H  0.72639706  0.66509430  0.27583744     0.28400
H721        H  0.69001673  0.77792105  0.26885828     0.41200
H722        H  0.69935741  0.77500393  0.41620531     0.31300
H723        H  0.66633621  0.73061108  0.38982932     0.38900
H724        H  0.84658499  0.72056385  0.30936511     0.30800
H725        H  0.78174231  0.81730279  0.40198452     0.30800
H726        H  0.81221515  0.71685849  0.42698239     0.31100
Zr727      Zr  0.75827289  0.71029364  0.04084539     2.17500
O728        O  0.72661146  0.68914266  0.50505552    -0.51300
O729        O  0.79488196  0.68806009  0.01506440    -0.74500
O730        O  0.75791970  0.73174666  0.49253617    -0.81300
O731        O  0.73143166  0.65816745  0.09608068    -0.83000
O732        O  0.77167259  0.77564933  0.49438816    -0.78600
O733        O  0.74233719  0.66411128  0.04605564    -0.90300
O734        O  0.83327553  0.69488639  0.04188444    -0.76200
O735        O  0.79566040  0.73652316  0.04719832    -0.85700
O736        O  0.78124979  0.69062028  0.08342795    -0.85400
O737        O  0.74110903  0.75544603  0.04629357    -0.72200
O738        O  0.72815140  0.71435796  0.08311030    -0.84300
Zr739      Zr  0.77765602  0.76848149  0.13664684     2.26400
Zr740      Zr  0.78169005  0.78116105  0.04971744     2.06300
Zr741      Zr  0.75205356  0.69525605  0.12605117     2.10000
Zr742      Zr  0.82017608  0.71791755  0.08719727     1.78800
O743        O  0.71027490  0.68094872  0.14995268    -0.93100
O744        O  0.86296186  0.73656082  0.07028931    -0.40900
O745        O  0.79206691  0.72212432  0.13119398    -0.77500
O746        O  0.80656899  0.76352930  0.09312487    -0.96200
O747        O  0.75379545  0.78731824  0.09380013    -0.89500
O748        O  0.73815434  0.74150870  0.13298179    -0.92400
C749        C  0.82025034  0.68539353  0.01926777     1.01400
C750        C  0.73139621  0.65060327  0.06796031     1.14300
C751        C  0.76327047  0.75472443  0.47982585     1.05100
O752        O  0.82047992  0.79419490  0.01951701    -0.94500
O753        O  0.80507424  0.81770313  0.07541538    -0.90300
O754        O  0.80527888  0.80801324  0.12660344    -0.83400
C755        C  0.81235658  0.82206025  0.10300278     1.11700
O756        O  0.67401348  0.74855813  0.06233166    -0.96500
Zr757      Zr  0.71428619  0.76059528  0.09100068     1.88900
O758        O  0.74709678  0.80300844  0.15639398    -0.73200
O759        O  0.75930920  0.82421543  0.03650628    -0.52400
O760        O  0.69729406  0.79835673  0.05951241    -0.97100
O761        O  0.67756304  0.74465543  0.12333689    -0.54300
O762        O  0.70977435  0.79750506  0.12726557    -0.73700
C763        C  0.72308646  0.80957222  0.14832261     0.98700
O764        O  0.81176950  0.77535454  0.17588677    -0.62500
O765        O  0.77840245  0.65622933  0.14413522    -0.57300
O766        O  0.76802570  0.74747558  0.18584488    -0.94000
O767        O  0.75656237  0.70277435  0.18150986    -0.92400
O768        O  0.83430279  0.67264823  0.10519731    -0.92800
O769        O  0.85155499  0.72527371  0.12966626    -0.91500
C770        C  0.76143897  0.72411426  0.19728587     1.17500
H771        H  0.78578445  0.67181487  0.08011219     0.33500
H772        H  0.82347995  0.77283347  0.09544229     0.44300
H773        H  0.72735681  0.74289807  0.15105550     0.37800
H774        H  0.73048187  0.76112221  0.02878859     0.34300
H775        H  0.87564858  0.72112048  0.07205603     0.26100
H776        H  0.77118781  0.83328912  0.02136099     0.32000
H777        H  0.70194936  0.81496682  0.07080247     0.38000
H778        H  0.85297188  0.67079531  0.09798903     0.32400
H779        H  0.78515431  0.66110581  0.16460067     0.31300
H780        H  0.71573422  0.66982078  0.16803717     0.33000
H781        H  0.67815989  0.75622751  0.14152833     0.31900
H782        H  0.84288037  0.71728954  0.14806505     0.35900
H783        H  0.82911849  0.77512640  0.16504530     0.28700
H784        H  0.73767896  0.68367255  0.48754225     0.32900
H785        H  0.65963788  0.76047860  0.06990089     0.35800
H786        H  0.76506809  0.64164048  0.14810652     0.28400
H787        H  0.80958535  0.79437092  0.18241679     0.41200
H788        H  0.83458752  0.78125588  0.02631619     0.31300
H789        H  0.86064744  0.73973301  0.04804638     0.38900
H790        H  0.68320196  0.72643985  0.13098409     0.30800
H791        H  0.74317726  0.81909738  0.02463372     0.30800
H792        H  0.71520059  0.70417701  0.49705479     0.31100
Zr793      Zr  0.53973628  0.31602229  0.10592248     2.17500
O794        O  0.54495790  0.27082449  0.12979541    -0.51300
O795        O  0.57604232  0.29513368  0.07419647    -0.74500
O796        O  0.50949208  0.28273057  0.08498968    -0.81300
O797        O  0.57615757  0.34689113  0.17134492    -0.83000
O798        O  0.50258199  0.29891282  0.03692906    -0.78600
O799        O  0.54775053  0.31308960  0.15994877    -0.90300
O800        O  0.60741757  0.32741109  0.06713957    -0.76200
O801        O  0.54767340  0.33276202  0.05587046    -0.85700
O802        O  0.57411350  0.34972996  0.11154934    -0.85400
O803        O  0.49617890  0.33474202  0.09194800    -0.72200
O804        O  0.52186105  0.35095681  0.13886330    -0.84300
Zr805      Zr  0.52070420  0.41935499  0.07623097     2.26400
Zr806      Zr  0.50472009  0.34999204  0.04072066     2.06300
Zr807      Zr  0.55643648  0.38499577  0.14351074     2.10000
Zr808      Zr  0.58111084  0.36730921  0.06150980     1.78800
O809        O  0.53460219  0.40229997  0.18859306    -0.93100
O810        O  0.58794859  0.35798295  0.00755914    -0.40900
O811        O  0.56312552  0.40124578  0.09249773    -0.77500
O812        O  0.53928995  0.38435345  0.04495405    -0.96200
O813        O  0.48621667  0.38620571  0.07121767    -0.89500
O814        O  0.51442346  0.40431638  0.12742984    -0.92400
C815        C  0.59868912  0.30351602  0.06307433     1.01400
C816        C  0.56913381  0.32188304  0.17227845     1.14300
C817        C  0.50330119  0.27915234  0.05706867     1.05100
O818        O  0.51099802  0.33402343  0.98910651    -0.94500
O819        O  0.50331877  0.38494675  0.00037412    -0.90300
O820        O  0.51140682  0.42580978  0.02225988    -0.83400
C821        C  0.50721908  0.41087770  0.99915215     1.11700
O822        O  0.45213502  0.33788781  0.14899195    -0.96500
Zr823      Zr  0.47975340  0.37197361  0.12284338     1.88900
O824        O  0.48193550  0.44542352  0.09241504    -0.73200
O825        O  0.45657968  0.34736441  0.03165890    -0.52400
O826        O  0.43675553  0.36668445  0.09673529    -0.97100
O827        O  0.47366958  0.37739092  0.17749528    -0.54300
O828        O  0.46035390  0.41916224  0.12756240    -0.73700
C829        C  0.46434194  0.44230646  0.11341907     0.98700
O830        O  0.53491488  0.46225164  0.05424105    -0.62500
O831        O  0.59238883  0.40089982  0.17684220    -0.57300
O832        O  0.54200876  0.44923994  0.11252037    -0.94000
O833        O  0.57890469  0.42710968  0.12643525    -0.92400
O834        O  0.62384405  0.38036190  0.08388582    -0.92800
O835        O  0.60425415  0.40451463  0.03499482    -0.91500
C836        C  0.56728491  0.44856580  0.11565790     1.17500
H837        H  0.59072003  0.34206806  0.11924795     0.33500
H838        H  0.54523335  0.39133820  0.02548239     0.44300
H839        H  0.50941892  0.41893799  0.14055330     0.37800
H840        H  0.48209508  0.32121172  0.09199250     0.34300
H841        H  0.61224094  0.36634254  0.50636623     0.26100
H842        H  0.45118651  0.36633784  0.02667232     0.32000
H843        H  0.43214098  0.38510672  0.08877237     0.38000
H844        H  0.61900381  0.38884865  0.10336093     0.32400
H845        H  0.58807332  0.39375138  0.19753015     0.31300
H846        H  0.53967592  0.42179872  0.18879254     0.33000
H847        H  0.47722510  0.39689677  0.18108515     0.31900
H848        H  0.59173428  0.42166854  0.53244526     0.35900
H849        H  0.54620562  0.45754210  0.03664522     0.28700
H850        H  0.55009808  0.25858646  0.11317271     0.32900
H851        H  0.43484490  0.34700756  0.15291377     0.35800
H852        H  0.60852105  0.39069022  0.17078303     0.28400
H853        H  0.51803194  0.46973238  0.04554740     0.41200
H854        H  0.53016064  0.33764673  0.98477846     0.31300
H855        H  0.58391722  0.33837601  0.00546774     0.38900
H856        H  0.48910773  0.36781002  0.18710827     0.30800
H857        H  0.45482669  0.33781909  0.01208632     0.30800
H858        H  0.52679142  0.26475463  0.13594050     0.31100
Zr859      Zr  0.55394865  0.15283573  0.00676895     2.17500
O860        O  0.55302968  0.18228941  0.45840329    -0.51300
O861        O  0.59099024  0.17904539  0.03035307    -0.74500
O862        O  0.53058847  0.19618450  0.00913473    -0.81300
O863        O  0.61084494  0.10929986  0.99045827    -0.83000
O864        O  0.49970270  0.19039132  0.04626090    -0.78600
O865        O  0.58091998  0.13562988  0.96656826    -0.90300
O866        O  0.59244204  0.16539937  0.08020100    -0.76200
O867        O  0.53730092  0.15613825  0.05720526    -0.85700
O868        O  0.58242806  0.12442027  0.03789142    -0.85400
O869        O  0.50847786  0.13584246  0.00176863    -0.72200
O870        O  0.54902308  0.10777672  0.98579041    -0.84300
Zr871      Zr  0.51698204  0.06611215  0.06541025     2.26400
Zr872      Zr  0.49229009  0.14043345  0.05253048     2.06300
Zr873      Zr  0.57841376  0.08013537  0.01652523     2.10000
Zr874      Zr  0.56469661  0.12663184  0.08801731     1.78800
O875        O  0.58187457  0.04930927  0.47086553    -0.93100
O876        O  0.55080133  0.15700255  0.12831284    -0.40900
O877        O  0.56195137  0.08255757  0.06744328    -0.77500
O878        O  0.51994087  0.11128236  0.08568248    -0.96200
O879        O  0.48814509  0.09431274  0.03490610    -0.89500
O880        O  0.53418613  0.06139899  0.01525947    -0.92400
C881        C  0.60067982  0.17996614  0.05771040     1.01400
C882        C  0.60506748  0.12892190  0.97205012     1.14300
C883        C  0.51356164  0.20569200  0.02785691     1.05100
O884        O  0.46155099  0.16618493  0.08358160    -0.94500
O885        O  0.47021764  0.11914834  0.09556780    -0.90300
O886        O  0.47124002  0.07775847  0.07637843    -0.83400
C887        C  0.46647500  0.09353648  0.09817863     1.11700
O888        O  0.49904321  0.10833547  0.43314527    -0.96500
Zr889      Zr  0.50427619  0.08842751  0.98509442     1.88900
O890        O  0.49617469  0.02777305  0.04213522    -0.73200
O891        O  0.45308690  0.14334027  0.01921156    -0.52400
O892        O  0.46097419  0.08919353  0.47200420    -0.97100
O893        O  0.52475305  0.05993960  0.43723334    -0.54300
O894        O  0.48571839  0.04062738  0.99352181    -0.73700
C895        C  0.48607646  0.02276638  0.01597134     0.98700
O896        O  0.50726239  0.04538203  0.11524859    -0.62500
O897        O  0.62314177  0.06038948  0.01950517    -0.57300
O898        O  0.55019785  0.03185819  0.07796925    -0.94000
O899        O  0.58835121  0.04348634  0.05252852    -0.92400
O900        O  0.60920926  0.11237823  0.10534062    -0.92800
O901        O  0.56460257  0.10295325  0.13755387    -0.91500
C902        C  0.57506442  0.02886104  0.07170446     1.17500
H903        H  0.60104376  0.12983077  0.03814245     0.33500
H904        H  0.51480750  0.11091653  0.10683206     0.44300
H905        H  0.53524443  0.04273448  0.00894703     0.37800
H906        H  0.49858974  0.14774213  0.98795446     0.34300
H907        H  0.55165317  0.17554891  0.11906609     0.26100
H908        H  0.43908057  0.13282525  0.03023973     0.32000
H909        H  0.45280882  0.07263440  0.48129157     0.38000
H910        H  0.61382808  0.12470221  0.12218052     0.32400
H911        H  0.62938516  0.05953990  0.99816213     0.31300
H912        H  0.58246501  0.03399415  0.97857152     0.33000
H913        H  0.50821462  0.05485962  0.42604673     0.31900
H914        H  0.56290640  0.08343153  0.13271365     0.35900
H915        H  0.51064892  0.02564061  0.11347252     0.28700
H916        H  0.56394429  0.19836449  0.46382978     0.32900
H917        H  0.51501588  0.11990420  0.42936034     0.35800
H918        H  0.63450256  0.07450185  0.02897723     0.28400
H919        H  0.52152212  0.05204295  0.12904494     0.41200
H920        H  0.47323411  0.17634748  0.09774406     0.31300
H921        H  0.53139359  0.15346224  0.13097622     0.38900
H922        H  0.53155366  0.04243294  0.44575530     0.30800
H923        H  0.44722549  0.16252448  0.02034274     0.30800
H924        H  0.53439963  0.18910710  0.45677804     0.31100
Zr925      Zr  0.89865002  0.16859900  0.30090776     2.17500
O926        O  0.90294170  0.19867343  0.34425871    -0.51300
O927        O  0.87316531  0.19707322  0.26446012    -0.74500
O928        O  0.92747053  0.20607797  0.28810906    -0.81300
O929        O  0.84408987  0.13286477  0.34425420    -0.83000
O930        O  0.95005858  0.19342426  0.24600473    -0.78600
O931        O  0.85861124  0.17517348  0.33015354    -0.90300
O932        O  0.86262846  0.17279365  0.22239836    -0.76200
O933        O  0.90680110  0.15922405  0.24911896    -0.85700
O934        O  0.86546920  0.13684447  0.28534554    -0.85400
O935        O  0.94405058  0.15208042  0.30146413    -0.72200
O936        O  0.90569849  0.13023340  0.33503137    -0.84300
Zr937      Zr  0.92388785  0.07119345  0.26673128     2.26400
Zr938      Zr  0.95136800  0.14320401  0.24885264     2.06300
Zr939      Zr  0.87137880  0.09909289  0.31955834     2.10000
Zr940      Zr  0.87467575  0.12634074  0.23395298     1.78800
O941        O  0.86041987  0.09015118  0.37285307    -0.93100
O942        O  0.88494166  0.13194623  0.17991504    -0.40900
O943        O  0.87876848  0.08744120  0.26754235    -0.77500
O944        O  0.91945343  0.10972049  0.23246596    -0.96200
O945        O  0.95779686  0.10304865  0.28013199    -0.89500
O946        O  0.91604382  0.08188624  0.31837472    -0.92400
C947        C  0.86284848  0.19474090  0.23762563     1.01400
C948        C  0.84226364  0.15889228  0.34371575     1.14300
C949        C  0.94171655  0.21142235  0.26463828     1.05100
O950        O  0.95735428  0.15761997  0.19578137    -0.94500
O951        O  0.97739280  0.10969882  0.22340951    -0.90300
O952        O  0.96225971  0.06659363  0.23350177    -0.83400
C953        C  0.97867831  0.08377851  0.22129188     1.11700
O954        O  0.96500208  0.14248974  0.37146163    -0.96500
Zr955      Zr  0.95057725  0.11124285  0.33212837     1.88900
O956        O  0.95257695  0.03951799  0.29377704    -0.73200
O957        O  0.99728204  0.15618892  0.26159684    -0.52400
O958        O  0.99830957  0.11932358  0.32394321    -0.97100
O959        O  0.94476908  0.09365054  0.38412589    -0.54300
O960        O  0.96893347  0.06372290  0.33354794    -0.73700
C961        C  0.96664115  0.04154460  0.31816384     0.98700
O962        O  0.90784111  0.04393610  0.22528258    -0.62500
O963        O  0.82720789  0.08239011  0.30428179    -0.57300
O964        O  0.90124477  0.03357849  0.29326782    -0.94000
O965        O  0.87386109  0.05056153  0.32957102    -0.92400
O966        O  0.82586754  0.12940593  0.23522399    -0.92800
O967        O  0.85605142  0.08942870  0.20410223    -0.91500
C968        C  0.88618720  0.03095991  0.31695500     1.17500
H969        H  0.84759409  0.14424928  0.28620226     0.33500
H970        H  0.92349337  0.10438791  0.21193329     0.44300
H971        H  0.91843325  0.06687708  0.33225289     0.37800
H972        H  0.95632048  0.16593642  0.30835612     0.34300
H973        H  0.86864327  0.14027465  0.17071170     0.26100
H974        H  0.00638030  0.15811401  0.24165900     0.32000
H975        H  0.00436822  0.10413817  0.31122809     0.38000
H976        H  0.82030491  0.13267942  0.21372404     0.32400
H977        H  0.82994125  0.07333363  0.28459599     0.31300
H978        H  0.87763188  0.08461084  0.38248822     0.33000
H979        H  0.93842449  0.07467292  0.38197280     0.31900
H980        H  0.84584096  0.07802570  0.21889684     0.35900
H981        H  0.88959718  0.03895863  0.23210060     0.28700
H982        H  0.90040596  0.21738560  0.33590252     0.32900
H983        H  0.98371088  0.13732319  0.37652488     0.35800
H984        H  0.82315550  0.06730238  0.31890542     0.28400
H985        H  0.90491490  0.05707516  0.20814601     0.41200
H986        H  0.95045747  0.14232695  0.18363283     0.31300
H987        H  0.89853606  0.14666042  0.17910575     0.38900
H988        H  0.92894616  0.10344515  0.39178052     0.30800
H989        H  0.99609789  0.17499495  0.26909887     0.30800
H990        H  0.92211840  0.19774911  0.35023256     0.31100
Zr991      Zr  0.89466464  0.33244054  0.28527547     2.17500
O992        O  0.88138231  0.30896963  0.23901611    -0.51300
O993        O  0.86931573  0.30362642  0.32313047    -0.74500
O994        O  0.92169743  0.29225804  0.27678277    -0.81300
O995        O  0.83296925  0.37719030  0.27970862    -0.83000
O996        O  0.96379165  0.30210243  0.29346136    -0.78600
O997        O  0.84918233  0.33557263  0.26832290    -0.90300
O998        O  0.87959867  0.31582633  0.37151286    -0.76200
O999        O  0.92804467  0.32839747  0.32396830    -0.85700
O1000       O  0.87639897  0.35691559  0.32627513    -0.85400
O1001       O  0.93360338  0.35473645  0.26307767    -0.72200
O1002       O  0.88855797  0.37820392  0.26463888    -0.84300
Zr1003     Zr  0.94153097  0.42005766  0.32781323     2.26400
Zr1004     Zr  0.96662161  0.35085237  0.30275222     2.06300
Zr1005     Zr  0.86912372  0.40166419  0.30593085     2.10000
Zr1006     Zr  0.91037008  0.35280051  0.36521861     1.78800
O1007       O  0.85361142  0.43887552  0.27289152    -0.93100
O1008       O  0.93997753  0.31829549  0.38752183    -0.40900
O1009       O  0.90275268  0.39665257  0.34445798    -0.77500
O1010       O  0.95012483  0.37415795  0.34642691    -0.96200
O1011       O  0.96126791  0.39760162  0.28626556    -0.89500
O1012       O  0.90855044  0.42511371  0.28847122    -0.92400
C1013       C  0.86616807  0.30194401  0.35249359     1.01400
C1014       C  0.83042306  0.35319407  0.26897350     1.14300
C1015       C  0.94597714  0.28566305  0.28326413     1.05100
O1016       O  0.00329221  0.32316319  0.32336518    -0.94500
O1017       O  0.00281677  0.37224068  0.33050854    -0.90300
O1018       O  0.98697866  0.41325344  0.34532506    -0.83400
C1019       C  0.00501086  0.39488274  0.34419925     1.11700
O1020       O  0.92159523  0.38398378  0.19639482    -0.96500
Zr1021     Zr  0.92841006  0.40238426  0.24713709     1.88900
O1022       O  0.94914688  0.46120795  0.29775620    -0.73200
O1023       O  0.99362994  0.35347187  0.25681755    -0.52400
O1024       O  0.97059935  0.39769870  0.22019559    -0.97100
O1025       O  0.89843804  0.42965264  0.21469468    -0.54300
O1026       O  0.94653716  0.45021178  0.24802222    -0.73700
C1027       C  0.95108520  0.46752753  0.26939840     0.98700
O1028       O  0.96142962  0.45688059  0.35661211    -0.62500
O1029       O  0.82686168  0.40442468  0.33343979    -0.57300
O1030       O  0.90936779  0.43432753  0.36544805    -0.94000
O1031       O  0.86666523  0.43378061  0.34702239    -0.92400
O1032       O  0.88028043  0.36628494  0.40557891    -0.92800
O1033       O  0.92501080  0.36968577  0.41446913    -0.91500
C1034       C  0.88401203  0.43839374  0.36795159     1.17500
H1035       H  0.85903118  0.35063081  0.33300167     0.33500
H1036       H  0.96239495  0.37321279  0.36351620     0.44300
H1037       H  0.90417088  0.44387320  0.28377273     0.37800
H1038       H  0.93937309  0.34445011  0.24578365     0.34300
H1039       H  0.93448748  0.30105811  0.37797923     0.26100
H1040       H  0.00688483  0.36800886  0.26090561     0.32000
H1041       H  0.97135374  0.41363901  0.20601741     0.38000
H1042       H  0.86433090  0.37366492  0.39469470     0.32400
H1043       H  0.81311484  0.40963308  0.31798293     0.31300
H1044       H  0.83720608  0.43171695  0.26302359     0.33000
H1045       H  0.89483359  0.44624030  0.22638426     0.31900
H1046       H  0.94039727  0.38186628  0.41005506     0.35900
H1047       H  0.94786998  0.47155230  0.35611037     0.28700
H1048       H  0.87869154  0.28963237  0.24511333     0.32900
H1049       H  0.92870518  0.39786273  0.18183384     0.35800
H1050       H  0.82238366  0.38544248  0.33955721     0.28400
H1051       H  0.96182168  0.44999958  0.37798110     0.41200
H1052       H  0.99708355  0.31671808  0.34368915     0.31300
H1053       H  0.95783253  0.32244866  0.37884396     0.38900
H1054       H  0.88121415  0.41958526  0.21488855     0.30800
H1055       H  0.00425682  0.33647932  0.25738308     0.30800
H1056       H  0.89749420  0.30915746  0.22594017     0.31100
Zr1057     Zr  0.68444895  0.23309999  0.97338901     2.17500
O1058       O  0.67446571  0.19706863  0.01072137    -0.51300
O1059       O  0.65099844  0.26035907  0.99826244    -0.74500
O1060       O  0.70703184  0.24183786  0.02135505    -0.81300
O1061       O  0.64728732  0.20278533  0.40996717    -0.83000
O1062       O  0.74918931  0.25930862  0.01661759    -0.78600
O1063       O  0.65638026  0.20031842  0.46103953    -0.90300
O1064       O  0.66413872  0.30292001  0.47741928    -0.76200
O1065       O  0.71473633  0.27534239  0.47255381    -0.85700
O1066       O  0.66931533  0.26026689  0.43335983    -0.85400
O1067       O  0.73568794  0.22189262  0.46799073    -0.72200
O1068       O  0.69468915  0.20947062  0.42853465    -0.84300
Zr1069     Zr  0.74621387  0.26260209  0.37902878     2.26400
Zr1070     Zr  0.76088446  0.26385928  0.46344273     2.06300
Zr1071     Zr  0.67672101  0.23622898  0.38699956     2.10000
Zr1072     Zr  0.69431219  0.30136829  0.43293437     1.78800
O1073       O  0.65463579  0.20473795  0.35277692    -0.93100
O1074       O  0.71213807  0.33923969  0.46175766    -0.40900
O1075       O  0.70107189  0.27786900  0.38569822    -0.77500
O1076       O  0.74080025  0.29046532  0.42292999    -0.96200
O1077       O  0.76494432  0.23653608  0.41992884    -0.89500
O1078       O  0.72170486  0.22132791  0.38026154    -0.92400
C1079       C  0.64857951  0.28626564  0.99826964     1.01400
C1080       C  0.64414326  0.19258393  0.43681397     1.14300
C1081       C  0.72896923  0.25118566  0.03252061     1.05100
O1082       O  0.77705778  0.30797699  0.48002823    -0.94500
O1083       O  0.80199153  0.27502691  0.43283507    -0.90300
O1084       O  0.79128139  0.27716302  0.38237708    -0.83400
C1085       C  0.80805807  0.27879165  0.40425661     1.11700
O1086       O  0.72386518  0.15672790  0.45267637    -0.96500
Zr1087     Zr  0.73947424  0.19586612  0.42276492     1.88900
O1088       O  0.77865017  0.23061179  0.35943659    -0.73200
O1089       O  0.79482442  0.24151864  0.98401447    -0.52400
O1090       O  0.77619420  0.17526874  0.45169213    -0.97100
O1091       O  0.72438685  0.15786838  0.39228087    -0.54300
O1092       O  0.77551139  0.19149783  0.38773171    -0.73700
C1093       C  0.78643584  0.20656298  0.36718673     0.98700
O1094       O  0.75473624  0.30306322  0.34734502    -0.62500
O1095       O  0.63959798  0.26741096  0.37723373    -0.57300
O1096       O  0.72944394  0.25557640  0.32869084    -0.94000
O1097       O  0.68616356  0.24159243  0.33222549    -0.92400
O1098       O  0.65199455  0.31825141  0.41161091    -0.92800
O1099       O  0.69955483  0.34323525  0.40273845    -0.91500
C1100       C  0.70718843  0.24817720  0.31691008     1.17500
H1101       H  0.65042423  0.26316893  0.43668451     0.33500
H1102       H  0.75086939  0.30711308  0.41997568     0.44300
H1103       H  0.72369866  0.21118276  0.36179047     0.37800
H1104       H  0.73720982  0.21100575  0.98340314     0.34300
H1105       H  0.71426033  0.33186592  0.48283908     0.26100
H1106       H  0.78760110  0.22548902  0.99533085     0.32000
H1107       H  0.78967592  0.19000580  0.45327225     0.38000
H1108       H  0.64240616  0.32631534  0.42891537     0.32400
H1109       H  0.64343743  0.27571197  0.35693485     0.31300
H1110       H  0.63794938  0.21404011  0.34608309     0.33000
H1111       H  0.73323972  0.16047879  0.37228794     0.31900
H1112       H  0.71579407  0.34022519  0.39040595     0.35900
H1113       H  0.73669302  0.30977848  0.34142028     0.28700
H1114       H  0.67011367  0.20655921  0.02971299     0.32900
H1115       H  0.71937530  0.16414313  0.47281823     0.35800
H1116       H  0.62384904  0.25554079  0.37380695     0.28400
H1117       H  0.76160276  0.31686218  0.36158174     0.41200
H1118       H  0.75258057  0.31457156  0.99160296     0.31300
H1119       H  0.73073691  0.34170648  0.45442670     0.38900
H1120       H  0.70520678  0.16168780  0.38808812     0.30800
H1121       H  0.80437925  0.23368201  0.96655445     0.30800
H1122       H  0.69190733  0.18814044  0.01501699     0.31100
Zr1123     Zr  0.68705341  0.26239049  0.12786299     2.17500
O1124       O  0.67505595  0.30301836  0.09794666    -0.51300
O1125       O  0.66100368  0.22895029  0.10129003    -0.74500
O1126       O  0.70622685  0.25806130  0.07777628    -0.81300
O1127       O  0.63564440  0.27192005  0.18979357    -0.83000
O1128       O  0.75103748  0.24964084  0.08130837    -0.78600
O1129       O  0.64092273  0.27371437  0.13817741    -0.90300
O1130       O  0.67417277  0.18926030  0.12427055    -0.76200
O1131       O  0.71864191  0.22622926  0.12753128    -0.85700
O1132       O  0.67365114  0.23165756  0.16785765    -0.85400
O1133       O  0.73002535  0.28331435  0.13505252    -0.72200
O1134       O  0.68764500  0.28816758  0.17360608    -0.84300
Zr1135     Zr  0.74964743  0.24191486  0.22142078     2.26400
Zr1136     Zr  0.76155114  0.24648424  0.13609665     2.06300
Zr1137     Zr  0.67621594  0.25652469  0.21403967     2.10000
Zr1138     Zr  0.70505727  0.19576380  0.16703323     1.78800
O1139       O  0.65385970  0.29241296  0.24157273    -0.93100
O1140       O  0.72505948  0.16132842  0.13511780    -0.40900
O1141       O  0.70735751  0.21968419  0.21429774    -0.77500
O1142       O  0.74869664  0.21503268  0.17619178    -0.96200
O1143       O  0.76278168  0.27249780  0.18148571    -0.89500
O1144       O  0.71840818  0.27810336  0.22192293    -0.92400
C1145       C  0.66043329  0.20302762  0.10440379     1.01400
C1146       C  0.62727470  0.27670013  0.16256494     1.14300
C1147       C  0.72918732  0.25337930  0.06597711     1.05100
O1148       O  0.78416963  0.21008271  0.10980547    -0.94500
O1149       O  0.80337138  0.23288549  0.16190757    -0.90300
O1150       O  0.79606631  0.23252204  0.21307266    -0.83400
C1151       C  0.81099027  0.22932629  0.18982299     1.11700
O1152       O  0.71435173  0.34589820  0.14933361    -0.96500
Zr1153     Zr  0.73077520  0.30831115  0.18144160     1.88900
O1154       O  0.77411559  0.27884682  0.24470411    -0.73200
O1155       O  0.79272701  0.27995207  0.11489445    -0.52400
O1156       O  0.76462306  0.33661535  0.15665777    -0.97100
O1157       O  0.70680041  0.33946298  0.21416706    -0.54300
O1158       O  0.76411076  0.31874855  0.21998111    -0.73700
C1159       C  0.77693071  0.30457644  0.24016459     0.98700
O1160       O  0.76635518  0.20406709  0.25324172    -0.62500
O1161       O  0.64501121  0.22242663  0.23395534    -0.57300
O1162       O  0.73009832  0.24266240  0.27160609    -0.94000
O1163       O  0.68549796  0.25183124  0.26849568    -0.92400
O1164       O  0.66799066  0.17159156  0.19146866    -0.92800
O1165       O  0.71903339  0.15529199  0.19603888    -0.91500
C1166       C  0.70716951  0.24706532  0.28358467     1.17500
H1167       H  0.65567566  0.22485412  0.16467294     0.33500
H1168       H  0.76157345  0.20042973  0.17808234     0.44300
H1169       H  0.71880358  0.28755349  0.24100488     0.37800
H1170       H  0.73388622  0.29550021  0.11805165     0.34300
H1171       H  0.70988215  0.14965732  0.12875284     0.26100
H1172       H  0.80586144  0.28314162  0.13149276     0.32000
H1173       H  0.77882050  0.32369944  0.15093306     0.38000
H1174       H  0.65448520  0.16898105  0.17511945     0.32400
H1175       H  0.63511830  0.23178015  0.25017339     0.31300
H1176       H  0.64045326  0.28288160  0.25452064     0.33000
H1177       H  0.71523229  0.33731080  0.23459682     0.31900
H1178       H  0.72970065  0.16235140  0.21329747     0.35900
H1179       H  0.75008784  0.19416595  0.26010615     0.28700
H1180       H  0.66287989  0.29640289  0.08178082     0.32900
H1181       H  0.69485716  0.34673976  0.15329749     0.35800
H1182       H  0.63158813  0.22007574  0.21747118     0.28400
H1183       H  0.77492116  0.19141077  0.23901112     0.41200
H1184       H  0.77850579  0.19319761  0.12070904     0.31300
H1185       H  0.73031956  0.17130532  0.11621515     0.38900
H1186       H  0.68873452  0.33133092  0.21656110     0.30800
H1187       H  0.80293120  0.26984471  0.09952707     0.30800
H1188       H  0.69159472  0.30852555  0.08704449     0.31100
Zr1189     Zr  0.43170770  0.02836619  0.21540543     2.17500
O1190       O  0.44701436  0.99855490  0.17529589    -0.51300
O1191       O  0.47324655  0.01901111  0.24184125    -0.74500
O1192       O  0.46253352  0.05170993  0.18180844    -0.81300
O1193       O  0.37426472  0.98170668  0.21785419    -0.83000
O1194       O  0.46726643  0.09147993  0.20538812    -0.78600
O1195       O  0.41947690  0.98089558  0.21926176    -0.90300
O1196       O  0.46952886  0.03578338  0.28925180    -0.76200
O1197       O  0.44317795  0.06555597  0.24680435    -0.85700
O1198       O  0.41074332  0.01778978  0.26295144    -0.85400
O1199       O  0.41365472  0.06819959  0.18926352    -0.72200
O1200       O  0.38448599  0.02492275  0.20467479    -0.84300
Zr1201     Zr  0.35510659  0.09163888  0.25707741     2.26400
Zr1202     Zr  0.42362782  0.10518639  0.22282241     2.06300
Zr1203     Zr  0.36300831  0.01655774  0.25291385     2.10000
Zr1204     Zr  0.42281332  0.05488657  0.29380650     1.78800
O1205       O  0.33254777  0.97759218  0.25368088    -0.93100
O1206       O  0.45212536  0.08824717  0.31732015    -0.40900
O1207       O  0.37419812  0.05348491  0.28519008    -0.77500
O1208       O  0.40233120  0.09516406  0.27056381    -0.96200
O1209       O  0.37759955  0.10035712  0.21072981    -0.89500
O1210       O  0.34558322  0.05493208  0.22461625    -0.92400
C1211       C  0.48315025  0.02402779  0.26813223     1.01400
C1212       C  0.39680640  0.97118766  0.21133979     1.14300
C1213       C  0.46979352  0.07670631  0.18208797     1.05100
O1214       O  0.45233081  0.13555232  0.25170296    -0.94500
O1215       O  0.40267772  0.14898121  0.23047256    -0.90300
O1216       O  0.36352761  0.13968342  0.25513996    -0.83400
C1217       C  0.38066450  0.15598591  0.24293161     1.11700
O1218       O  0.37584465  0.03269572  0.13683101    -0.96500
Zr1219     Zr  0.36749635  0.06414102  0.17801668     1.88900
O1220       O  0.32886414  0.11852152  0.21904010    -0.73200
O1221       O  0.42755043  0.13336151  0.17656651    -0.52400
O1222       O  0.38359269  0.08826489  0.13248735    -0.97100
O1223       O  0.32412756  0.04649104  0.16133797    -0.54300
O1224       O  0.34050974  0.10480163  0.17172728    -0.73700
C1225       C  0.32843950  0.12098006  0.18962309     0.98700
O1226       O  0.33957569  0.10981099  0.30510588    -0.62500
O1227       O  0.37043780  0.99465711  0.30276556    -0.57300
O1228       O  0.31080091  0.07109201  0.26697750    -0.94000
O1229       O  0.31514067  0.02551121  0.26068764    -0.92400
O1230       O  0.42032668  0.01603504  0.32908814    -0.92800
O1231       O  0.41176425  0.06736547  0.34560498    -0.91500
C1232       C  0.30088823  0.04691263  0.26474074     1.17500
H1233       H  0.41730015  0.00082781  0.27170493     0.33500
H1234       H  0.40492034  0.11028232  0.28400343     0.44300
H1235       H  0.32711086  0.05371274  0.21830127     0.37800
H1236       H  0.42106616  0.07148649  0.16934266     0.34300
H1237       H  0.46441577  0.07733529  0.33052998     0.26100
H1238       H  0.44690496  0.13743422  0.17455033     0.32000
H1239       H  0.36889489  0.08663117  0.11732682     0.38000
H1240       H  0.43768554  0.01615039  0.34019603     0.32400
H1241       H  0.35235222  0.98970351  0.31025785     0.31300
H1242       H  0.34331553  0.96185143  0.26107585     0.33000
H1243       H  0.32660491  0.02656805  0.15998378     0.31900
H1244       H  0.39930091  0.08290759  0.34301322     0.35900
H1245       H  0.33542772  0.09354440  0.31796453     0.28700
H1246       H  0.46665609  0.99698333  0.17836426     0.32900
H1247       H  0.39129531  0.02156036  0.14392137     0.35800
H1248       H  0.37903545  0.97703670  0.29839163     0.28400
H1249       H  0.35587161  0.11758891  0.31463464     0.41200
H1250       H  0.46541995  0.14271118  0.23664431     0.31300
H1251       H  0.46357768  0.09506568  0.30044219     0.38900
H1252       H  0.32213179  0.05302820  0.13991095     0.30800
H1253       H  0.42326917  0.12118464  0.15951643     0.30800
H1254       H  0.44478315  0.00898485  0.15586137     0.31100
Zr1255     Zr  0.09025609  0.03548262  0.24211186     2.17500
O1256       O  0.05513244  0.03837417  0.28037801    -0.51300
O1257       O  0.05877675  0.00464425  0.21713861    -0.74500
O1258       O  0.05495960  0.06539937  0.22401439    -0.81300
O1259       O  0.13975871  0.99884320  0.29811062    -0.83000
O1260       O  0.06754557  0.09199295  0.18332989    -0.78600
O1261       O  0.09771786  0.01656612  0.29425120    -0.90300
O1262       O  0.07465621  0.00178443  0.16910886    -0.76200
O1263       O  0.09606866  0.04526590  0.18928796    -0.85700
O1264       O  0.11967580  0.00055132  0.22545954    -0.85400
O1265       O  0.10670465  0.08139976  0.23680042    -0.72200
O1266       O  0.13153566  0.04082361  0.26843289    -0.84300
Zr1267     Zr  0.18588137  0.06336977  0.19661542     2.26400
Zr1268     Zr  0.11580679  0.08955192  0.18358973     2.06300
Zr1269     Zr  0.16243326  0.00779011  0.25054674     2.10000
Zr1270     Zr  0.12432692  0.01079028  0.17228752     1.78800
O1271       O  0.18548661  0.98308656  0.29181455    -0.93100
O1272       O  0.11289926  0.02298130  0.11959631    -0.40900
O1273       O  0.16777697  0.01743181  0.19747530    -0.77500
O1274       O  0.14572404  0.05515703  0.16669906    -0.96200
O1275       O  0.15514678  0.09671776  0.21353164    -0.89500
O1276       O  0.17810607  0.05351174  0.24897756    -0.92400
C1277       C  0.05525866  0.99978975  0.18863734     1.01400
C1278       C  0.11683810  0.00434747  0.30924795     1.14300
C1279       C  0.05004083  0.08183488  0.20152058     1.05100
O1280       O  0.10466694  0.09194580  0.12943637    -0.94500
O1281       O  0.14709874  0.11894878  0.15543110    -0.90300
O1282       O  0.18789934  0.09839140  0.15613179    -0.83400
C1283       C  0.17167922  0.11721571  0.14696670     1.11700
O1284       O  0.11494158  0.09632144  0.30587667    -0.96500
Zr1285     Zr  0.14679396  0.08611922  0.26589993     1.88900
O1286       O  0.21192736  0.09758371  0.22491350    -0.73200
O1287       O  0.09997328  0.13498511  0.19517646    -0.52400
O1288       O  0.13703671  0.13465668  0.26554603    -0.97100
O1289       O  0.16321713  0.07497680  0.31721501    -0.54300
O1290       O  0.19032682  0.10556001  0.26927154    -0.73700
C1291       C  0.21031423  0.10821477  0.25150299     0.98700
O1292       O  0.21904264  0.05124841  0.15865763    -0.62500
O1293       O  0.16391515  0.96273090  0.22845766    -0.57300
O1294       O  0.22578972  0.04272618  0.21931200    -0.94000
O1295       O  0.21179146  0.01019020  0.25327140    -0.92400
O1296       O  0.12412009  0.96120741  0.17624906    -0.92800
O1297       O  0.15070606  0.98622173  0.13543370    -0.91500
C1298       C  0.23018571  0.02484637  0.24054366     1.17500
H1299       H  0.11231752  0.98268590  0.22977352     0.33500
H1300       H  0.14972053  0.05841345  0.14538845     0.44300
H1301       H  0.19382913  0.05538876  0.26167643     0.37800
H1302       H  0.09367179  0.09432160  0.24379860     0.34300
H1303       H  0.10243251  0.00729905  0.11210883     0.26100
H1304       H  0.11633329  0.14520702  0.20084239     0.32000
H1305       H  0.15465001  0.14383929  0.26729366     0.38000
H1306       H  0.10610750  0.95622632  0.18394283     0.32400
H1307       H  0.18268855  0.95667610  0.23150694     0.31300
H1308       H  0.18006137  0.96379961  0.28992619     0.33000
H1309       H  0.16884900  0.09260442  0.32574676     0.31900
H1310       H  0.16953811  0.99100753  0.14028258     0.35900
H1311       H  0.22170248  0.03139648  0.16160959     0.28700
H1312       H  0.03850015  0.03228744  0.27006976     0.32900
H1313       H  0.09822598  0.08680621  0.29996054     0.35800
H1314       H  0.15333605  0.95093171  0.24248902     0.28400
H1315       H  0.20956431  0.05296410  0.13878755     0.41200
H1316       H  0.09259503  0.10782924  0.12715422     0.31300
H1317       H  0.09952799  0.03771889  0.12123034     0.38900
H1318       H  0.18019288  0.06499898  0.31425246     0.30800
H1319       H  0.09439586  0.14300840  0.17521002     0.30800
H1320       H  0.05251069  0.05809309  0.28347486     0.31100
Zr1321     Zr  0.42946768  0.48009219  0.45209286     2.17500
O1322       O  0.45066519  0.48329563  0.00267201    -0.51300
O1323       O  0.45665348  0.50550530  0.41763151    -0.74500
O1324       O  0.46854694  0.45164417  0.44796073    -0.81300
O1325       O  0.38830413  0.53966413  0.44431015    -0.83000
O1326       O  0.45734405  0.40995342  0.43015358    -0.78600
O1327       O  0.42335283  0.52528168  0.47192421    -0.90300
O1328       O  0.45458709  0.47765141  0.37832873    -0.76200
O1329       O  0.42917598  0.44870894  0.41140530    -0.85700
O1330       O  0.40262085  0.50097456  0.41274290    -0.85400
O1331       O  0.41393742  0.43710774  0.47272067    -0.72200
O1332       O  0.38572635  0.48547272  0.47342517    -0.84300
Zr1333     Zr  0.33920261  0.43416154  0.42018089     2.26400
Zr1334     Zr  0.40898247  0.40740101  0.42977601     2.06300
Zr1335     Zr  0.35780101  0.50371498  0.43188505     2.10000
Zr1336     Zr  0.40353157  0.47001453  0.37308522     1.78800
O1337       O  0.33612005  0.54637019  0.44564065    -0.93100
O1338       O  0.42072438  0.43721029  0.33689716    -0.40900
O1339       O  0.36001624  0.47154684  0.39525610    -0.77500
O1340       O  0.38109984  0.42988279  0.39239137    -0.96200
O1341       O  0.36792093  0.41231035  0.45646300    -0.89500
O1342       O  0.34242903  0.46483099  0.46061726    -0.92400
C1343       C  0.46848443  0.49266894  0.39696089     1.01400
C1344       C  0.40148024  0.53866060  0.46908743     1.14300
C1345       C  0.47436309  0.42766223  0.43909103     1.05100
O1346       O  0.43103719  0.37103182  0.40272430    -0.94500
O1347       O  0.38268186  0.37446109  0.40054987    -0.90300
O1348       O  0.34105599  0.39238872  0.39408003    -0.83400
C1349       C  0.35870440  0.37422887  0.38955942     1.11700
O1350       O  0.38996515  0.45991477  0.04344767    -0.96500
Zr1351     Zr  0.37171232  0.44356486  0.49703410     1.88900
O1352       O  0.32148897  0.40034585  0.45964029    -0.73200
O1353       O  0.41234277  0.37485948  0.47221120    -0.52400
O1354       O  0.39374943  0.40998473  0.53038319    -0.97100
O1355       O  0.33341654  0.46341073  0.03313740    -0.54300
O1356       O  0.33785743  0.40929969  0.50678967    -0.73700
C1357       C  0.32311470  0.39541617  0.48892975     0.98700
O1358       O  0.30195217  0.42909077  0.38427732    -0.62500
O1359       O  0.35077035  0.51727725  0.37886064    -0.57300
O1360       O  0.29767985  0.45982278  0.42704581    -0.94000
O1361       O  0.30879658  0.50395875  0.43445903    -0.92400
O1362       O  0.40735739  0.51421979  0.34674490    -0.92800
O1363       O  0.38332037  0.47431572  0.32247431    -0.91500
C1364       C  0.29147639  0.48469328  0.43234375     1.17500
H1365       H  0.40981238  0.51806671  0.40514401     0.33500
H1366       H  0.37878304  0.41934032  0.37429261     0.44300
H1367       H  0.32588557  0.46796395  0.47115340     0.37800
H1368       H  0.42694255  0.42972205  0.48707885     0.34300
H1369       H  0.43511838  0.44702042  0.32569942     0.26100
H1370       H  0.39595621  0.36355495  0.47048679     0.32000
H1371       H  0.37388873  0.40281052  0.04566610     0.38000
H1372       H  0.42670968  0.51651266  0.34239339     0.32400
H1373       H  0.33109798  0.51933520  0.37675049     0.31300
H1374       H  0.33325418  0.55637910  0.42604112     0.33000
H1375       H  0.31570178  0.45624936  0.02679945     0.31900
H1376       H  0.36677019  0.46320162  0.32385792     0.35900
H1377       H  0.31041790  0.42858011  0.36393819     0.28700
H1378       H  0.46924922  0.48703744  0.99592508     0.32900
H1379       H  0.37877795  0.45483449  0.06125631     0.35800
H1380       H  0.35790941  0.53607676  0.37732921     0.28400
H1381       H  0.29448844  0.41058720  0.38780832     0.41200
H1382       H  0.43649249  0.37942825  0.38297181     0.31300
H1383       H  0.43036352  0.42349981  0.34968653     0.38900
H1384       H  0.33290715  0.48296533  0.02721449     0.30800
H1385       H  0.42708511  0.36258413  0.46644909     0.30800
H1386       H  0.45126421  0.46453588  0.01136049     0.31100
Zr1387     Zr  0.08336631  0.46451951  0.42492125     2.17500
O1388       O  0.05086430  0.48236040  0.38770587    -0.51300
O1389       O  0.04794028  0.48450740  0.45583903    -0.74500
O1390       O  0.05283165  0.42981363  0.40733562    -0.81300
O1391       O  0.13572922  0.51824769  0.39711741    -0.83000
O1392       O  0.06005066  0.38952741  0.43243715    -0.78600
O1393       O  0.09556467  0.49849488  0.38655443    -0.90300
O1394       O  0.05253692  0.47683070  0.00606913    -0.76200
O1395       O  0.08017770  0.43944189  0.47174205    -0.85700
O1396       O  0.10827867  0.49150191  0.45982041    -0.85400
O1397       O  0.10287319  0.42086258  0.41449353    -0.72200
O1398       O  0.12810558  0.46830579  0.40583991    -0.84300
Zr1399     Zr  0.17034187  0.42475337  0.47596060     2.26400
Zr1400     Zr  0.10070774  0.39628016  0.46249211     2.06300
Zr1401     Zr  0.15405162  0.49358808  0.44155862     2.10000
Zr1402     Zr  0.09999651  0.46202866  0.00433107     1.78800
O1403       O  0.17818084  0.53254352  0.41967219    -0.93100
O1404       O  0.07868972  0.43602989  0.04559065    -0.40900
O1405       O  0.15151683  0.46824446  0.48862251    -0.77500
O1406       O  0.12032830  0.41852205  0.99352518    -0.96200
O1407       O  0.14419046  0.40003180  0.44088669    -0.89500
O1408       O  0.17270582  0.45016620  0.42927991    -0.92400
C1409       C  0.04110942  0.48586684  0.48404386     1.01400
C1410       C  0.11465947  0.51530319  0.38049962     1.14300
C1411       C  0.04784997  0.40454788  0.41257086     1.05100
O1412       O  0.06803060  0.38711917  0.00220778    -0.94500
O1413       O  0.12498343  0.35768069  0.97383010    -0.90300
O1414       O  0.16368088  0.37694751  0.99069931    -0.83400
C1415       C  0.14856601  0.35647281  0.98587603     1.11700
O1416       O  0.12567145  0.43667559  0.34541702    -0.96500
Zr1417     Zr  0.14661316  0.42533046  0.39445762     1.88900
O1418       O  0.19845335  0.39224109  0.44829630    -0.73200
O1419       O  0.09334321  0.34891884  0.44905266    -0.52400
O1420       O  0.13424755  0.38488349  0.36648967    -0.97100
O1421       O  0.18135714  0.44479964  0.36159972    -0.54300
O1422       O  0.18150076  0.39189441  0.40018301    -0.73700
C1423       C  0.19723307  0.38269520  0.42115410     0.98700
O1424       O  0.18812404  0.41839345  0.01993279    -0.62500
O1425       O  0.14862792  0.52714882  0.48117626    -0.57300
O1426       O  0.21178838  0.45002790  0.47329009    -0.94000
O1427       O  0.20362176  0.49011872  0.44802047    -0.92400
O1428       O  0.10049706  0.50796129  0.02437895    -0.92800
O1429       O  0.12592188  0.46412953  0.05149106    -0.91500
C1430       C  0.21960974  0.47226318  0.46036355     1.17500
H1431       H  0.10039598  0.50950623  0.46136153     0.33500
H1432       H  0.12143072  0.40779723  0.01223064     0.44300
H1433       H  0.19035259  0.45081707  0.42046629     0.37800
H1434       H  0.09401679  0.41036788  0.39698610     0.34300
H1435       H  0.07363869  0.44980305  0.06065709     0.26100
H1436       H  0.07544679  0.34399024  0.45715192     0.32000
H1437       H  0.14596240  0.38525789  0.34833901     0.38000
H1438       H  0.08403004  0.50928940  0.03674141     0.32400
H1439       H  0.16693371  0.53019429  0.48932191     0.31300
H1440       H  0.18565624  0.54247935  0.43721470     0.33000
H1441       H  0.17415278  0.46263020  0.35453003     0.31900
H1442       H  0.14076926  0.45110047  0.04873593     0.35900
H1443       H  0.19099267  0.43735879  0.02641536     0.28700
H1444       H  0.03295065  0.47811092  0.39618765     0.32900
H1445       H  0.10875665  0.44594164  0.35065154     0.35800
H1446       H  0.14400316  0.54429845  0.47009189     0.28400
H1447       H  0.17470123  0.41100011  0.03447121     0.41200
H1448       H  0.05016378  0.38148734  0.99460140     0.31300
H1449       H  0.06133183  0.42993015  0.03699273     0.38900
H1450       H  0.18114677  0.43346212  0.34320241     0.30800
H1451       H  0.09125058  0.34897272  0.42656375     0.30800
H1452       H  0.05236526  0.47078502  0.36956847     0.31100
Zr1453     Zr  0.26570062  0.22139667  0.27537419     2.17500
O1454       O  0.23201961  0.20248650  0.24097870    -0.51300
O1455       O  0.30512182  0.20279733  0.25144494    -0.74500
O1456       O  0.26954569  0.24189575  0.22609852    -0.81300
O1457       O  0.24080940  0.16786666  0.32857332    -0.83000
O1458       O  0.28411560  0.28550048  0.22921761    -0.78600
O1459       O  0.25446236  0.17449878  0.27957892    -0.90300
O1460       O  0.34114742  0.21539206  0.27967482    -0.76200
O1461       O  0.30426822  0.24857150  0.28227155    -0.85700
O1462       O  0.28643662  0.20313391  0.32027464    -0.85400
O1463       O  0.24833763  0.26671763  0.27783639    -0.72200
O1464       O  0.23225654  0.22525364  0.31408348    -0.84300
Zr1465     Zr  0.27726651  0.28031771  0.37169644     2.26400
Zr1466     Zr  0.28776430  0.29374052  0.28516619     2.06300
Zr1467     Zr  0.25362144  0.20729096  0.35945354     2.10000
Zr1468     Zr  0.32471559  0.23087346  0.32763016     1.78800
O1469       O  0.20862360  0.19529653  0.37611317    -0.93100
O1470       O  0.36786240  0.25327301  0.31934411    -0.40900
O1471       O  0.29298923  0.23448603  0.36812730    -0.77500
O1472       O  0.30949940  0.27629122  0.33133278    -0.96200
O1473       O  0.25671331  0.29884356  0.32640026    -0.89500
O1474       O  0.23830604  0.25333700  0.36425002    -0.92400
C1475       C  0.33044009  0.20446573  0.25635676     1.01400
C1476       C  0.24384374  0.16014210  0.30084730     1.14300
C1477       C  0.27649841  0.26460541  0.21388273     1.05100
O1478       O  0.32811755  0.30948574  0.25916573    -0.94500
O1479       O  0.30963180  0.33005944  0.31267512    -0.90300
O1480       O  0.30208528  0.32198803  0.36344836    -0.83400
C1481       C  0.31257220  0.33530803  0.34103756     1.11700
O1482       O  0.18065081  0.26025400  0.28575773    -0.96500
Zr1483     Zr  0.21790987  0.27169244  0.31929690     1.88900
O1484       O  0.24361529  0.31288839  0.38795503    -0.73200
O1485       O  0.26215825  0.33299435  0.26649639    -0.52400
O1486       O  0.20184730  0.30897859  0.28648969    -0.97100
O1487       O  0.17742603  0.25664648  0.34555339    -0.54300
O1488       O  0.20945952  0.30871414  0.35382898    -0.73700
C1489       C  0.22074573  0.31998189  0.37676141     0.98700
O1490       O  0.30902993  0.28920016  0.41326086    -0.62500
O1491       O  0.27528686  0.16862623  0.38532745    -0.57300
O1492       O  0.26620975  0.25681582  0.41969032    -0.94000
O1493       O  0.25298962  0.21278288  0.41528092    -0.93200
O1494       O  0.33857693  0.18401990  0.33828393    -0.92800
O1495       O  0.35383866  0.23233143  0.37249231    -0.91500
C1496       C  0.25850669  0.23375003  0.43131443     1.17500
H1497       H  0.29169059  0.18443174  0.31774073     0.33500
H1498       H  0.32576128  0.28615448  0.33578781     0.44300
H1499       H  0.22618056  0.25475778  0.38120559     0.37800
H1500       H  0.23916192  0.27199660  0.25915223     0.34300
H1501       H  0.37942605  0.23932070  0.31020654     0.26100
H1502       H  0.26835054  0.34840276  0.27892554     0.32000
H1503       H  0.21232010  0.32507010  0.29281172     0.38000
H1504       H  0.35561853  0.18190502  0.32714320     0.32400
H1505       H  0.27383504  0.15329396  0.37113579     0.31300
H1506       H  0.21097071  0.17830458  0.38838749     0.33000
H1507       H  0.17885643  0.26407326  0.36631348     0.31900
H1508       H  0.35339384  0.25153068  0.37889426     0.35900
H1509       H  0.31498083  0.27099976  0.42067733     0.28700
H1510       H  0.24199518  0.19642060  0.22289632     0.32900
H1511       H  0.18650739  0.24356109  0.27550117     0.35800
H1512       H  0.29460851  0.17331333  0.38546140     0.28400
H1513       H  0.32538839  0.29702836  0.40387473     0.41200
H1514       H  0.33944259  0.29304839  0.25776895     0.31300
H1515       H  0.36447268  0.26663866  0.30253121     0.38900
H1516       H  0.17969287  0.23676185  0.34854669     0.30800
H1517       H  0.26931101  0.33704944  0.24587541     0.30800
H1518       H  0.22125370  0.21821272  0.23354408     0.31100
Zr1519     Zr  0.26461013  0.27806682  0.02425485     2.17500
O1520       O  0.30407614  0.29063278  0.48787429    -0.51300
O1521       O  0.22722988  0.30490164  0.00444263    -0.74500
O1522       O  0.26380298  0.25588141  0.47677920    -0.81300
O1523       O  0.29361734  0.33127428  0.07220529    -0.83000
O1524       O  0.24971694  0.21214817  0.48184859    -0.78600
O1525       O  0.28211013  0.32315935  0.02296137    -0.90300
O1526       O  0.19045246  0.29538208  0.03299567    -0.76200
O1527       O  0.22457468  0.25288113  0.03241802    -0.85700
O1528       O  0.24555379  0.29714875  0.06830366    -0.85400
O1529       O  0.27940314  0.23179643  0.02939370    -0.72200
O1530       O  0.29859007  0.27289045  0.06304378    -0.84300
Zr1531     Zr  0.25193988  0.21970872  0.12331603     2.26400
Zr1532     Zr  0.23878166  0.20658546  0.03784151     2.06300
Zr1533     Zr  0.27904833  0.29245686  0.10709396     2.10000
Zr1534     Zr  0.20620083  0.27105643  0.07775425     1.78800
O1535       O  0.32270542  0.30585191  0.12726541    -0.93100
O1536       O  0.16304832  0.25040534  0.06597055    -0.40900
O1537       O  0.23878200  0.26653186  0.11799711    -0.77500
O1538       O  0.21898741  0.22462196  0.08335611    -0.96200
O1539       O  0.27078415  0.20070207  0.07878292    -0.89500
O1540       O  0.29197964  0.24530766  0.11448371    -0.92400
C1541       C  0.20220024  0.30712450  0.01046431     1.01400
C1542       C  0.29224682  0.33819616  0.04336875     1.14300
C1543       C  0.25689494  0.23323238  0.46544709     1.05100
O1544       O  0.19468803  0.19720612  0.01621970    -0.94500
O1545       O  0.22006681  0.16842961  0.06937660    -0.90300
O1546       O  0.22714242  0.17753095  0.11965738    -0.83400
C1547       C  0.21782800  0.16278780  0.09825303     1.11700
O1548       O  0.34453242  0.23715155  0.03234855    -0.96500
Zr1549     Zr  0.31084080  0.22572615  0.07066552     1.88900
O1550       O  0.28441877  0.18633951  0.14204353    -0.73200
O1551       O  0.25806309  0.16531539  0.01762521    -0.52400
O1552       O  0.32433823  0.18684342  0.04108839    -0.97100
O1553       O  0.35282406  0.23964857  0.09478601    -0.54300
O1554       O  0.31824049  0.18806720  0.10766186    -0.73700
C1555       C  0.30672370  0.17779608  0.13150949     0.98700
O1556       O  0.21969473  0.21055064  0.16426283    -0.62500
O1557       O  0.25585519  0.33159311  0.12757346    -0.57300
O1558       O  0.26471821  0.24230221  0.16966311    -0.94000
O1559       O  0.28077498  0.28538941  0.16315547    -0.92400
O1560       O  0.19256732  0.31621002  0.09331890    -0.92800
O1561       O  0.17664965  0.26727653  0.12176352    -0.91500
C1562       C  0.27413599  0.26467652  0.18005575     1.17500
H1563       H  0.24101440  0.31605634  0.06471538     0.33500
H1564       H  0.20287381  0.21467861  0.08852839     0.44300
H1565       H  0.30438278  0.24323805  0.13140915     0.37800
H1566       H  0.28804335  0.22622379  0.01090843     0.34300
H1567       H  0.15041554  0.26590817  0.06457592     0.26100
H1568       H  0.25878816  0.15220299  0.03508821     0.32000
H1569       H  0.30893357  0.17414587  0.04246272     0.38000
H1570       H  0.17291619  0.31663462  0.08993137     0.32400
H1571       H  0.25540810  0.34530558  0.11068455     0.31300
H1572       H  0.32763595  0.32275910  0.11595423     0.33000
H1573       H  0.35502905  0.22740426  0.11286037     0.31900
H1574       H  0.18453145  0.25265826  0.13483651     0.35900
H1575       H  0.21698348  0.22810419  0.17443209     0.28700
H1576       H  0.29386122  0.29806055  0.47011831     0.32900
H1577       H  0.36089864  0.22702744  0.03856272     0.35800
H1578       H  0.23698757  0.32557153  0.12966740     0.28400
H1579       H  0.20222926  0.20719113  0.15410745     0.41200
H1580       H  0.19669483  0.19968688  0.99388332     0.31300
H1581       H  0.16483028  0.24437846  0.04467719     0.38900
H1582       H  0.34905927  0.25772621  0.10329314     0.30800
H1583       H  0.24392558  0.15808640  0.00402703     0.30800
H1584       H  0.31248059  0.27373731  0.48065031     0.31100
C1585       C  0.20585527  0.34301634  0.38969323    -0.16400
C1586       C  0.21394645  0.35885478  0.41294788    -0.31500
H1587       H  0.18689778  0.34764827  0.37831937     0.12700
H1588       H  0.23212564  0.35412633  0.42576068     0.13200
C1589       C  0.15999954  0.33004149  0.99499746    -0.16400
C1590       C  0.18655625  0.32630509  0.99152343    -0.31500
H1591       H  0.14773486  0.31544886  0.00761819     0.12700
H1592       H  0.19793488  0.34060404  0.97738057     0.13200
C1593       C  0.35003717  0.35227044  0.36997022    -0.16400
C1594       C  0.33042139  0.35721317  0.34932130    -0.31500
H1595       H  0.35660321  0.33162182  0.37532430     0.12700
H1596       H  0.32464474  0.37784755  0.34273506     0.13200
C1597       C  0.24920212  0.47468295  0.45791734    -0.16400
C1598       C  0.26274634  0.49070302  0.43800925    -0.31500
H1599       H  0.26058412  0.45922791  0.47057166     0.12700
H1600       H  0.25273343  0.50690294  0.42515712     0.13200
C1601       C  0.30377044  0.36474644  0.03208001    -0.16400
C1602       C  0.30844412  0.37134476  0.50263283    -0.31500
H1603       H  0.31610301  0.37615172  0.04785402     0.12700
H1604       H  0.29753694  0.35867738  0.48675857     0.13200
C1605       C  0.23190654  0.12607309  0.26249256    -0.16400
C1606       C  0.23231518  0.13393451  0.29195899    -0.31500
H1607       H  0.24480702  0.13580937  0.24560231     0.12700
H1608       H  0.21998475  0.12340633  0.30884247     0.13200
C1609       C  0.18217705  0.13972938  0.12718498    -0.16400
C1610       C  0.20360613  0.13774845  0.10869571    -0.31500
H1611       H  0.17280674  0.15952428  0.12949440     0.12700
H1612       H  0.21282551  0.11813221  0.10488032     0.13200
C1613       C  0.37347296  0.18468137  0.24357910    -0.16400
C1614       C  0.34820924  0.19081599  0.23517359    -0.31500
H1615       H  0.38408502  0.19683445  0.26021817     0.12700
H1616       H  0.33836307  0.17841422  0.21819084     0.13200
C1617       C  0.25817019  0.02244975  0.25202274    -0.16400
C1618       C  0.27116611  0.04467324  0.26244433    -0.31500
H1619       H  0.26859087  0.00324897  0.24966746     0.12700
H1620       H  0.25982585  0.06337117  0.26488519     0.13200
C1621       C  0.32013469  0.15417266  0.14702356    -0.16400
C1622       C  0.31386129  0.14448278  0.17528079    -0.31500
H1623       H  0.33627907  0.14461504  0.13467024     0.12700
H1624       H  0.29892867  0.15486050  0.18864760     0.13200
C1625       C  0.02866654  0.39973204  0.36241325    -0.16400
C1626       C  0.02880652  0.39182370  0.39190504    -0.31500
H1627       H  0.04309075  0.41457899  0.35376600     0.12700
H1628       H  0.01440911  0.37702162  0.40069904     0.13200
C1629       C  0.84347041  0.28563976  0.36506884    -0.16400
C1630       C  0.83579742  0.28646999  0.39492863    -0.31500
H1631       H  0.83035833  0.27616344  0.34845607     0.12700
H1632       H  0.84892561  0.29533376  0.41192515     0.13200
C1633       C  0.80437709  0.34437771  0.25636884    -0.16400
C1634       C  0.79790036  0.31775167  0.25840241    -0.31500
H1635       H  0.79170471  0.35888559  0.24404477     0.12700
H1636       H  0.81042605  0.30413966  0.27224815     0.13200
C1637       C  0.00257534  0.07312838  0.20675393    -0.16400
C1638       C  0.02219990  0.09011866  0.19749313    -0.31500
H1639       H  0.00688013  0.05169635  0.21046185     0.12700
H1640       H  0.01830343  0.11151282  0.19248838     0.13200
C1641       C  0.81906495  0.17045467  0.35887832    -0.16400
C1642       C  0.81022595  0.19574171  0.35227061    -0.31500
H1643       H  0.80800789  0.15713087  0.37444092     0.12700
H1644       H  0.82079849  0.20877735  0.33599039     0.13200
C1645       C  0.94704777  0.24060786  0.25880320    -0.16400
C1646       C  0.95287325  0.25658402  0.28249870    -0.31500
H1647       H  0.94162139  0.24949997  0.23671128     0.12700
H1648       H  0.95922894  0.24723444  0.30406319     0.13200
C1649       C  0.84808831  0.21819163  0.22460292    -0.16400
C1650       C  0.83779182  0.21792825  0.19608105    -0.31500
H1651       H  0.84087601  0.23298909  0.24067245     0.12700
H1652       H  0.84582947  0.20418783  0.17936544     0.13200
C1653       C  0.46166559  0.08133148  0.12793680    -0.16400
C1654       C  0.47483301  0.09010663  0.15274355    -0.31500
H1655       H  0.44981549  0.06273931  0.12878455     0.12700
H1656       H  0.48686554  0.10856566  0.15184665     0.13200
C1657       C  0.62386840  0.19739826  0.06520386    -0.16400
C1658       C  0.64167347  0.18719307  0.08584590    -0.31500
H1659       H  0.62490997  0.21831604  0.05685721     0.12700
H1660       H  0.64045926  0.16568813  0.09221687     0.13200
C1661       C  0.62537617  0.17018379  0.44002814    -0.16400
C1662       C  0.63045306  0.14960707  0.45969412    -0.31500
H1663       H  0.60658066  0.17139346  0.42737675     0.12700
H1664       H  0.64606994  0.14530515  0.97115603     0.13200
C1665       C  0.50789654  0.42500728  0.96947493    -0.16400
C1666       C  0.50215161  0.41890247  0.44249949    -0.31500
H1667       H  0.50920343  0.44707095  0.97065305     0.12700
H1668       H  0.50533707  0.39749378  0.43788293     0.13200
C1669       C  0.58938118  0.30228074  0.18145290    -0.16400
C1670       C  0.60054524  0.28806672  0.15905814    -0.31500
H1671       H  0.59942523  0.30449204  0.20334478     0.12700
H1672       H  0.59214053  0.28910661  0.13611463     0.13200
C1673       C  0.51158955  0.23631019  0.02859762    -0.16400
C1674       C  0.49728083  0.25015198  0.04922504    -0.31500
H1675       H  0.52503014  0.24785800  0.01376558     0.12700
H1676       H  0.48547346  0.23842704  0.06560036     0.13200
C1677       C  0.61498430  0.28648167  0.04215831    -0.16400
C1678       C  0.63184083  0.29912987  0.02192534    -0.31500
H1679       H  0.61179972  0.26466000  0.04152899     0.12700
H1680       H  0.63359941  0.32113981  0.02227552     0.13200
C1681       C  0.99717089  0.49736602  0.51459543    -0.16400
C1682       C  0.01180237  0.49290138  0.48874429    -0.31500
H1683       H  0.00710096  0.49863443  0.53662572     0.12700
H1684       H  0.99508778  0.49154588  0.96964504     0.13200
C1685       C  0.88793991  0.43401511  0.42252748    -0.16400
C1686       C  0.87444815  0.44416520  0.39816791    -0.31500
H1687       H  0.90573766  0.42162478  0.41978302     0.12700
H1688       H  0.85674334  0.45676263  0.40057403     0.13200
C1689       C  0.79970549  0.61453330  0.40674285    -0.16400
C1690       C  0.80047954  0.62128383  0.37621790    -0.31500
H1691       H  0.78917050  0.62778866  0.42210087     0.12700
H1692       H  0.81047704  0.60806479  0.36038335     0.13200
C1693       C  0.85964130  0.65867144  0.00322066    -0.16400
C1694       C  0.83460840  0.66817613  0.99779992    -0.31500
H1695       H  0.87295573  0.66850555  0.01933583     0.12700
H1696       H  0.82217220  0.65816122  0.98088433     0.13200
C1697       C  0.51150726  0.49843293  0.42568546    -0.16400
C1698       C  0.49910235  0.49376018  0.39815457    -0.31500
H1699       H  0.49835674  0.50024531  0.44506753     0.12700
H1700       H  0.51082383  0.49016646  0.37790177     0.13200
C1701       C  0.59970647  0.45960065  0.07668796    -0.16400
C1702       C  0.58240545  0.46859696  0.09752526    -0.31500
H1703       H  0.60848602  0.43948587  0.07936287     0.12700
H1704       H  0.57351634  0.48865255  0.09436217     0.13200
C1705       C  0.67064192  0.64473105  0.41804370    -0.16400
C1706       C  0.69654007  0.65156621  0.42199986    -0.31500
H1707       H  0.65747015  0.65721251  0.40371895     0.12700
H1708       H  0.70931667  0.63965444  0.43740385     0.13200
C1709       C  0.74195664  0.49949580  0.49525769    -0.16400
C1710       C  0.75690939  0.51952887  0.50703896    -0.31500
H1711       H  0.75062320  0.48016072  0.48905636     0.12700
H1712       H  0.74707266  0.53834580  0.51331635     0.13200
C1713       C  0.71630034  0.62561744  0.05964770    -0.16400
C1714       C  0.71635879  0.61442991  0.53515769    -0.31500
H1715       H  0.70285048  0.61687966  0.07663715     0.12700
H1716       H  0.73074096  0.62245965  0.51875200     0.13200
C1717       C  0.00507656  0.99548442  0.19576008    -0.16400
C1718       C  0.02708864  0.99167115  0.17791414    -0.31500
H1719       H  0.00898887  0.00473673  0.21762321     0.12700
H1720       H  0.02466391  0.98209216  0.15598662     0.13200
C1721       C  0.89768596  0.98201894  0.32363639    -0.16400
C1722       C  0.88602407  0.00460925  0.33378547    -0.31500
H1723       H  0.90128906  0.96519791  0.33961929     0.12700
H1724       H  0.87998281  0.00477201  0.35754384     0.13200
C1725       C  0.80573844  0.83861363  0.22643655    -0.16400
C1726       C  0.81554370  0.81835219  0.24492077    -0.31500
H1727       H  0.78446555  0.84032315  0.22138152     0.12700
H1728       H  0.83718582  0.81736615  0.24822868     0.13200
C1729       C  0.85390976  0.83880300  0.12428384    -0.16400
C1730       C  0.83150349  0.84372774  0.10792879    -0.31500
H1731       H  0.85878782  0.81821907  0.13207521     0.12700
H1732       H  0.82685664  0.86387020  0.09870363     0.13200
C1733       C  0.52784928  0.01014925  0.24878159    -0.16400
C1734       C  0.51209589  0.01519453  0.27335867    -0.31500
H1735       H  0.51899367  0.01464385  0.22649624     0.12700
H1736       H  0.51971070  0.01175667  0.29637233     0.13200
C1737       C  0.61105659  0.01685975  0.10652547    -0.16400
C1738       C  0.58957245  0.00894476  0.09025265    -0.31500
H1739       H  0.62128596  0.03588624  0.10098666     0.12700
H1740       H  0.57887605  0.99035006  0.09643005     0.13200
C1741       C  0.67412929  0.84570380  0.29822270    -0.16400
C1742       C  0.69648717  0.84771728  0.31539487    -0.31500
H1743       H  0.66612767  0.82578449  0.29274442     0.12700
H1744       H  0.70381048  0.86742726  0.32259908     0.13200
C1745       C  0.75694344  0.97831431  0.21352798    -0.16400
C1746       C  0.77093345  0.96103150  0.19646898    -0.31500
H1747       H  0.76685015  0.99349135  0.22731208     0.12700
H1748       H  0.75967489  0.94649286  0.18298525     0.13200
C1749       C  0.71770265  0.85033814  0.18392188    -0.16400
C1750       C  0.70884612  0.83291327  0.16227198    -0.31500
H1751       H  0.73664874  0.84686836  0.19568757     0.12700
H1752       H  0.68910931  0.83663035  0.15234528     0.13200
C1753       C  0.95853998  0.51623279  0.28340171    -0.16400
C1754       C  0.95979118  0.49652878  0.26194187    -0.31500
H1755       H  0.94924621  0.51070914  0.30502575     0.12700
H1756       H  0.96941701  0.50097265  0.24026778     0.13200
C1757       C  0.98149454  0.58565842  0.42184505    -0.16400
C1758       C  0.98603733  0.56051761  0.43283726    -0.31500
H1759       H  0.96707912  0.59887878  0.43255893     0.12700
H1760       H  0.99985915  0.54695352  0.42168145     0.13200
C1761       C  0.11207698  0.53147572  0.35207705    -0.16400
C1762       C  0.09762003  0.52163899  0.32875858    -0.31500
H1763       H  0.11842448  0.55264179  0.35200771     0.12700
H1764       H  0.09109453  0.50050364  0.32966697     0.13200
C1765       C  0.12990618  0.69801595  0.36520864    -0.16400
C1766       C  0.11745469  0.70873526  0.33999827    -0.31500
H1767       H  0.12395465  0.67784459  0.37325329     0.12700
H1768       H  0.12362276  0.72811622  0.32993929     0.13200
C1769       C  0.10541561  0.67209379  0.21054806    -0.16400
C1770       C  0.10617013  0.69703717  0.22229281    -0.31500
H1771       H  0.12163560  0.66491594  0.19639285     0.12700
H1772       H  0.09233741  0.70263530  0.24002864     0.13200
C1773       C  0.97070639  0.99158112  0.32985843    -0.16400
C1774       C  0.98202892  0.01678092  0.32792415    -0.31500
H1775       H  0.94915727  0.98973253  0.32905098     0.12700
H1776       H  0.00353299  0.01898753  0.33114146     0.13200
C1777       C  0.08945649  0.99941415  0.35506425    -0.16400
C1778       C  0.11249576  0.99471811  0.34086943    -0.31500
H1779       H  0.07801052  0.01729144  0.34792426     0.12700
H1780       H  0.12450151  0.97725309  0.34818869     0.13200
C1781       C  0.02908793  0.92077135  0.20546251    -0.16400
C1782       C  0.01317018  0.90477923  0.18888107    -0.31500
H1783       H  0.02686342  0.94245662  0.20188244     0.12700
H1784       H  0.01981646  0.88413329  0.18483043     0.13200
C1785       C  0.09749371  0.83382724  0.44821444    -0.16400
C1786       C  0.10573030  0.81274767  0.43163260    -0.31500
H1787       H  0.10853963  0.83990874  0.46840971     0.12700
H1788       H  0.09649094  0.80927039  0.40953655     0.13200
C1789       C  0.01646342  0.76469524  0.30938158    -0.16400
C1790       C  0.01199729  0.74411269  0.32988373    -0.31500
H1791       H  0.01745883  0.75995042  0.28532144     0.12700
H1792       H  0.01004417  0.74861934  0.35391244     0.13200
C1793       C  0.15166529  0.81255152  0.30283584    -0.16400
C1794       C  0.13262401  0.80162319  0.32147855    -0.31500
H1795       H  0.15619564  0.83414680  0.30360344     0.12700
H1796       H  0.12721068  0.78026207  0.32017873     0.13200
C1797       C  0.53335708  0.88188555  0.15301018    -0.16400
C1798       C  0.53043497  0.88664847  0.18284305    -0.31500
H1799       H  0.55289834  0.88360628  0.14227217     0.12700
H1800       H  0.51107238  0.88469704  0.19389094     0.13200
C1801       C  0.39715632  0.94976950  0.18963606    -0.16400
C1802       C  0.38438827  0.95387722  0.16291797    -0.31500
H1803       H  0.41291801  0.93460417  0.19207218     0.12700
H1804       H  0.36889964  0.96926992  0.15997668     0.13200
C1805       C  0.48146788  0.97452981  0.03402256    -0.16400
C1806       C  0.47437058  0.99434133  0.01305474    -0.31500
H1807       H  0.49708757  0.97963577  0.05036599     0.12700
H1808       H  0.45892091  0.99047526  0.99612055     0.13200
C1809       C  0.34651516  0.77653781  0.14875996    -0.16400
C1810       C  0.33778522  0.77629396  0.17820853    -0.31500
H1811       H  0.33503693  0.76562431  0.13175310     0.12700
H1812       H  0.34935184  0.78664591  0.19556253     0.13200
C1813       C  0.30954592  0.83562220  0.04160151    -0.16400
C1814       C  0.30226465  0.80916081  0.04248072    -0.31500
H1815       H  0.29688476  0.85088789  0.03050636     0.12700
H1816       H  0.31309626  0.79499075  0.55126690     0.13200
C1817       C  0.45131946  0.48754245  0.13844832    -0.16400
C1818       C  0.44658960  0.46677842  0.11847983    -0.31500
H1819       H  0.46481672  0.48429918  0.15771603     0.12700
H1820       H  0.43298834  0.47120714  0.09954222     0.13200
C1821       C  0.51334159  0.58069725  0.04300242    -0.16400
C1822       C  0.51402008  0.59509263  0.49806688    -0.31500
H1823       H  0.52330445  0.56192367  0.04986110     0.12700
H1824       H  0.51281704  0.61637221  0.50413076     0.13200
C1825       C  0.38330553  0.54066680  0.00138585    -0.16400
C1826       C  0.38614038  0.52185198  0.02356705    -0.31500
H1827       H  0.36922994  0.55724190  0.00355920     0.12700
H1828       H  0.40100799  0.50595050  0.02144178     0.13200
C1829       C  0.28408337  0.67108560  0.12083830    -0.16400
C1830       C  0.28778189  0.64401006  0.12533229    -0.31500
H1831       H  0.29811815  0.68261177  0.10667693     0.12700
H1832       H  0.27369799  0.63168702  0.13845649     0.13200
C1833       C  0.42880130  0.72816679  0.09686479    -0.16400
C1834       C  0.44953506  0.74156677  0.08410904    -0.31500
H1835       H  0.41161849  0.73980056  0.10447307     0.12700
H1836       H  0.46778811  0.73116400  0.07781690     0.13200
C1837       C  0.33347849  0.69871640  0.02656525    -0.16400
C1838       C  0.32676185  0.69934763  0.99618990    -0.31500
H1839       H  0.32264341  0.71143562  0.04223259     0.12700
H1840       H  0.33726617  0.69454449  0.47577166     0.13200
Zr1841     Zr  0.37691725  0.64993625  0.60142572     2.17500
O1842       O  0.37197733  0.67143086  0.65071365    -0.51300
O1843       O  0.35585900  0.68312619  0.56457000    -0.74500
O1844       O  0.40533807  0.68896220  0.60388602    -0.81300
O1845       O  0.31119812  0.61304395  0.60482267    -0.83000
O1846       O  0.44471929  0.67966295  0.58075652    -0.78600
O1847       O  0.33068080  0.65409118  0.61294810    -0.90300
O1848       O  0.35711415  0.66545609  0.51722948    -0.76200
O1849       O  0.40494651  0.65051882  0.55825699    -0.85700
O1850       O  0.35260755  0.62429268  0.56533235    -0.85400
O1851       O  0.41768110  0.62840455  0.61985834    -0.72200
O1852       O  0.37090661  0.60597766  0.62663761    -0.84300
Zr1853     Zr  0.41630399  0.55869499  0.56215360     2.26400
Zr1854     Zr  0.44530021  0.62918809  0.57563280     2.06300
Zr1855     Zr  0.34610427  0.58065634  0.58987743     2.10000
Zr1856     Zr  0.38134468  0.62426043  0.52216456     1.78800
O1857       O  0.33702604  0.55101624  0.63395559    -0.93100
O1858       O  0.40862434  0.65625765  0.49219532    -0.40900
O1859       O  0.37598572  0.58197008  0.54749433    -0.77500
O1860       O  0.42166113  0.60313308  0.53786669    -0.96200
O1861       O  0.44119722  0.58386676  0.59825321    -0.89500
O1862       O  0.38733337  0.55769389  0.60528927    -0.92400
C1863       C  0.35042207  0.68384789  0.53558605     1.01400
C1864       C  0.31032650  0.63836209  0.61159760     1.14300
C1865       C  0.42795952  0.69618163  0.59295715     1.05100
O1866       O  0.48170893  0.65213890  0.54877160    -0.94500
O1867       O  0.47438712  0.60570657  0.54086489    -0.90300
O1868       O  0.45577153  0.56449162  0.53082561    -0.83400
C1869       C  0.47368570  0.58297414  0.52701839     1.11700
O1870       O  0.41134124  0.60727430  0.68877286    -0.96500
Zr1871     Zr  0.41241440  0.58236842  0.64127048     1.88900
O1872       O  0.43304409  0.52115828  0.59250412    -0.73200
O1873       O  0.47819618  0.62780941  0.61685750    -0.52400
O1874       O  0.45504339  0.58515618  0.66857540    -0.97100
O1875       O  0.38308834  0.55969729  0.67826266    -0.54300
O1876       O  0.43179633  0.53444114  0.64139140    -0.73700
C1877       C  0.43689448  0.51645662  0.62079098     0.98700
O1878       O  0.43306268  0.52209305  0.53119721    -0.62500
O1879       O  0.30157749  0.56242295  0.57924157    -0.57300
O1880       O  0.37723117  0.52949471  0.55755489    -0.94000
O1881       O  0.33970439  0.55054224  0.54657948    -0.92400
O1882       O  0.34183504  0.60944992  0.49401054    -0.92800
O1883       O  0.38862580  0.60592894  0.47161045    -0.91500
C1884       C  0.35875192  0.53508056  0.53850141     1.17500
H1885       H  0.33571968  0.63238110  0.55923894     0.33500
H1886       H  0.43029602  0.60312501  0.51833342     0.44300
H1887       H  0.38396800  0.53936458  0.61275265     0.37800
H1888       H  0.42578616  0.63975202  0.63513345     0.34300
H1889       H  0.41717658  0.67318600  0.01008923     0.26100
H1890       H  0.49439412  0.61995553  0.60757140     0.32000
H1891       H  0.46886026  0.58176467  0.65302081     0.38000
H1892       H  0.32950729  0.60222472  0.50985589     0.32400
H1893       H  0.29184732  0.56295117  0.59882440     0.31300
H1894       H  0.33269356  0.53309218  0.62526443     0.33000
H1895       H  0.39438131  0.55664540  0.69668504     0.31900
H1896       H  0.42117968  0.59030506  0.98946406     0.35900
H1897       H  0.44953464  0.51512085  0.54140858     0.28700
H1898       H  0.36629576  0.69034511  0.64591148     0.32900
H1899       H  0.39423475  0.61746369  0.68784981     0.35800
H1900       H  0.29274544  0.57643950  0.56607638     0.28400
H1901       H  0.41987194  0.50722880  0.53381411     0.41200
H1902       H  0.47290604  0.66171193  0.53129039     0.31300
H1903       H  0.42738060  0.65038800  0.49576961     0.38900
H1904       H  0.38020987  0.54123681  0.67025346     0.30800
H1905       H  0.48288008  0.64713675  0.62004025     0.30800
H1906       H  0.39044203  0.67315958  0.65894500     0.31100
Zr1907     Zr  0.40059608  0.82151715  0.56541288     2.17500
O1908       O  0.38828391  0.79485507  0.02533767    -0.51300
O1909       O  0.37245069  0.79763709  0.60355321    -0.74500
O1910       O  0.42518309  0.77942188  0.57333694    -0.81300
O1911       O  0.34229085  0.86777833  0.54521061    -0.83000
O1912       O  0.46738096  0.78825362  0.59037674    -0.78600
O1913       O  0.35501313  0.82340709  0.54738502    -0.90300
O1914       O  0.37510642  0.81894915  0.64894578    -0.76200
O1915       O  0.42621733  0.82429434  0.61090384    -0.85700
O1916       O  0.37879663  0.85487409  0.59446034    -0.85400
O1917       O  0.44458839  0.83543296  0.54817195    -0.72200
O1918       O  0.40133006  0.86228965  0.53348700    -0.84300
Zr1919     Zr  0.44825670  0.91261296  0.59512775     2.26400
Zr1920     Zr  0.46991725  0.83816218  0.59476364     2.06300
Zr1921     Zr  0.37920023  0.89539740  0.56346900     2.10000
Zr1922     Zr  0.40439377  0.85765501  0.64023879     1.78800
O1923       O  0.37326366  0.92251425  0.51666534    -0.93100
O1924       O  0.42552130  0.83125328  0.68153571    -0.40900
O1925       O  0.40408122  0.89873243  0.61033615    -0.77500
O1926       O  0.44843840  0.87137248  0.62589353    -0.96200
O1927       O  0.47123660  0.88025213  0.56559331    -0.89500
O1928       O  0.42277307  0.91080546  0.54895437    -0.92400
C1929       C  0.36590038  0.80030378  0.63176247     1.01400
C1930       C  0.33789630  0.84231788  0.54198361     1.14300
C1931       C  0.44853326  0.77175632  0.58262237     1.05100
O1932       O  0.49237747  0.81246984  0.63559563    -0.94500
O1933       O  0.50260482  0.86351266  0.62437637    -0.90300
O1934       O  0.49256124  0.90846831  0.61722350    -0.83400
C1935       C  0.50716361  0.88899463  0.62778280     1.11700
O1936       O  0.43215170  0.86035218  0.98010820    -0.96500
Zr1937     Zr  0.44567136  0.87863866  0.51972862     1.88900
O1938       O  0.47221946  0.94192948  0.55981814    -0.73200
O1939       O  0.50754585  0.83123700  0.56071501    -0.52400
O1940       O  0.49093006  0.86965913  0.50225331    -0.97100
O1941       O  0.41141832  0.90895956  0.98911488    -0.54300
O1942       O  0.46536996  0.92549132  0.51236888    -0.73700
C1943       C  0.47413297  0.94391051  0.53075118     0.98700
O1944       O  0.45410457  0.94420581  0.63695408    -0.62500
O1945       O  0.33309458  0.91015638  0.57102144    -0.57300
O1946       O  0.41989116  0.95184532  0.58809671    -0.94000
O1947       O  0.37844654  0.93508600  0.59517248    -0.92400
O1948       O  0.36433418  0.87671782  0.66268089    -0.92800
O1949       O  0.41279604  0.88773237  0.68267068    -0.91500
C1950       C  0.39658941  0.95307797  0.59946307     1.17500
H1951       H  0.36054044  0.84992115  0.59928714     0.33500
H1952       H  0.45811693  0.87404900  0.64475525     0.44300
H1953       H  0.42146621  0.92823582  0.53845573     0.37800
H1954       H  0.45206502  0.82137030  0.53574092     0.34300
H1955       H  0.41137549  0.82903834  0.69713955     0.26100
H1956       H  0.51952413  0.84700550  0.56410803     0.32000
H1957       H  0.49119922  0.89553320  0.00238431     0.38000
H1958       H  0.35329903  0.88287789  0.64498388     0.32400
H1959       H  0.32913037  0.90509138  0.59251586     0.31300
H1960       H  0.37048523  0.94132661  0.52360303     0.33000
H1961       H  0.41035189  0.92794561  0.99609355     0.31900
H1962       H  0.41801221  0.90529995  0.67289155     0.35900
H1963       H  0.45939700  0.93285030  0.65492991     0.28700
H1964       H  0.37824526  0.77893380  0.03359517     0.32900
H1965       H  0.44200767  0.87082935  0.96420745     0.35800
H1966       H  0.33334468  0.93030373  0.57038569     0.28400
H1967       H  0.47032174  0.95499105  0.63179501     0.41200
H1968       H  0.47791833  0.80773200  0.65015571     0.31300
H1969       H  0.42780443  0.81279676  0.67332905     0.38900
H1970       H  0.39312069  0.90157613  0.99218264     0.30800
H1971       H  0.51732294  0.81552601  0.56986613     0.30800
H1972       H  0.40544794  0.78726585  0.01820780     0.31100
Zr1973     Zr  0.05359625  0.84041863  0.87083897     2.17500
O1974       O  0.04777452  0.80171815  0.90624444    -0.51300
O1975       O  0.09290781  0.81582830  0.84952997    -0.74500
O1976       O  0.03022346  0.80163244  0.84825780    -0.81300
O1977       O  0.08846084  0.87998588  0.93243238    -0.83000
O1978       O  0.02465043  0.81506755  0.79887071    -0.78600
O1979       O  0.06096457  0.84460169  0.92503208    -0.90300
O1980       O  0.12597947  0.84655841  0.84559584    -0.76200
O1981       O  0.06869062  0.84982451  0.82070609    -0.85700
O1982       O  0.08818777  0.87422750  0.87475597    -0.85400
O1983       O  0.01328443  0.85759589  0.84610653    -0.72200
O1984       O  0.03266073  0.88024132  0.89307643    -0.84300
Zr1985     Zr  0.04491587  0.93831533  0.81732235     2.26400
Zr1986     Zr  0.02893472  0.86495782  0.79530138     2.06300
Zr1987     Zr  0.06788134  0.91345330  0.89733925     2.10000
Zr1988     Zr  0.10242375  0.88438891  0.82447084     1.78800
O1989       O  0.03592796  0.92918692  0.93476279    -0.93100
O1990       O  0.11581790  0.86354200  0.77700584    -0.40900
O1991       O  0.08322504  0.92328844  0.84636787    -0.77500
O1992       O  0.06419571  0.89843664  0.79663855    -0.96200
O1993       O  0.00932626  0.90602116  0.81390807    -0.89500
O1994       O  0.03060965  0.93114802  0.86891513    -0.92400
C1995       C  0.11707515  0.82268044  0.84218408     1.01400
C1996       C  0.08208723  0.85489821  0.93656936     1.14300
C1997       C  0.02464197  0.79664806  0.82025039     1.05100
O1998       O  0.04312898  0.84198955  0.74951886    -0.94500
O1999       O  0.03006996  0.89310565  0.74997214    -0.90300
O2000       O  0.03565394  0.93756367  0.76241455    -0.83400
C2001       C  0.03253262  0.91844555  0.74306430     1.11700
O2002       O  0.96567185  0.86870932  0.89294740    -0.96500
Zr2003     Zr  0.99497881  0.90004131  0.86495751     1.88900
O2004       O  0.00852967  0.96990038  0.82190656    -0.73200
O2005       O  0.98196336  0.86080289  0.78015660    -0.52400
O2006       O  0.95494885  0.89317636  0.83420537    -0.97100
O2007       O  0.97662015  0.91739047  0.91217744    -0.54300
O2008       O  0.97895736  0.94787800  0.85310539    -0.73700
C2009       C  0.98708543  0.96926645  0.83770151     0.98700
O2010       O  0.07372983  0.96837637  0.78713026    -0.62500
O2011       O  0.09579108  0.93597559  0.93516915    -0.57300
O2012       O  0.05661984  0.97475235  0.85082406    -0.94000
O2013       O  0.08896483  0.95629770  0.88052064    -0.92400
O2014       O  0.14311492  0.90246325  0.84733910    -0.92800
O2015       O  0.12736376  0.91544020  0.79123040    -0.91500
C2016       C  0.07924268  0.97603115  0.86417008     1.17500
H2017       H  0.10381383  0.86774952  0.88568235     0.33500
H2018       H  0.07136641  0.90227191  0.77663209     0.44300
H2019       H  0.02441544  0.94752027  0.87836964     0.37800
H2020       H  0.99932643  0.84392679  0.84644501     0.34300
H2021       H  0.13562671  0.86275444  0.77777625     0.26100
H2022       H  0.98190691  0.86353857  0.75770379     0.32000
H2023       H  0.94137848  0.90488667  0.84374397     0.38000
H2024       H  0.13941481  0.90251051  0.86949955     0.32400
H2025       H  0.09044209  0.92808014  0.95519891     0.31300
H2026       H  0.04210891  0.94771060  0.93989174     0.33000
H2027       H  0.95771104  0.92181320  0.90711793     0.31900
H2028       H  0.12229467  0.93380828  0.79796090     0.35900
H2029       H  0.08354179  0.95648298  0.77310765     0.28700
H2030       H  0.05614644  0.78593875  0.89639960     0.32900
H2031       H  0.97802789  0.85703209  0.90520237     0.35800
H2032       H  0.11413790  0.92903309  0.93181983     0.28400
H2033       H  0.06171977  0.97945571  0.77379321     0.41200
H2034       H  0.06285498  0.84436270  0.74922666     0.31300
H2035       H  0.10981960  0.84435870  0.77871584     0.38900
H2036       H  0.98524076  0.93536859  0.91473212     0.30800
H2037       H  0.97753465  0.84130080  0.78334761     0.30800
H2038       H  0.02830416  0.79767310  0.90639221     0.31100
Zr2039     Zr  0.04842755  0.67242298  0.77747640     2.17500
O2040       O  0.04329876  0.70823952  0.73836034    -0.51300
O2041       O  0.08846218  0.69583543  0.79963382    -0.74500
O2042       O  0.02468828  0.71237911  0.79461648    -0.81300
O2043       O  0.09724486  0.63242674  0.73302921    -0.83000
O2044       O  0.00749677  0.69860335  0.84000424    -0.78600
O2045       O  0.06484730  0.66343285  0.72749528    -0.90300
O2046       O  0.08226124  0.68169293  0.84759942    -0.76200
O2047       O  0.04470072  0.66556017  0.83102596    -0.85700
O2048       O  0.08325801  0.64036522  0.79050613    -0.85400
O2049       O  0.00327645  0.65503246  0.78422541    -0.72200
O2050       O  0.03812243  0.63116688  0.75025141    -0.84300
Zr2051     Zr  0.02486665  0.57574586  0.82492729     2.26400
Zr2052     Zr  0.00062114  0.64847575  0.83827458     2.06300
Zr2053     Zr  0.07290626  0.59913584  0.76360672     2.10000
Zr2054     Zr  0.07861614  0.63345119  0.84407500     1.78800
O2055       O  0.06061288  0.57341120  0.71871284    -0.93100
O2056       O  0.07725689  0.64034162  0.89896290    -0.40900
O2057       O  0.06940530  0.59281570  0.81759134    -0.77500
O2058       O  0.03508970  0.61622998  0.85269526    -0.96200
O2059       O  0.98986478  0.60692383  0.81227838    -0.89500
O2060       O  0.02859238  0.58109594  0.77121693    -0.92400
C2061       C  0.09510926  0.69595741  0.82813162     1.01400
C2062       C  0.08873885  0.65552144  0.72337189     1.14300
C2063       C  0.01501929  0.71746270  0.82086772     1.05100
O2064       O  0.98385360  0.66826488  0.88485315    -0.94500
O2065       O  0.98882002  0.61962076  0.88184259    -0.90300
O2066       O  0.00251890  0.57638176  0.87290979    -0.83400
C2067       C  0.99177178  0.59445110  0.88945247     1.11700
O2068       O  0.97515071  0.64314341  0.71973661    -0.96500
Zr2069     Zr  0.99380401  0.61226085  0.75856315     1.88900
O2070       O  0.98890958  0.54722791  0.80622431    -0.73200
O2071       O  0.95398859  0.65644543  0.82400608    -0.52400
O2072       O  0.94661277  0.62169737  0.76722827    -0.97100
O2073       O  0.99756888  0.59652129  0.70642645    -0.54300
O2074       O  0.97391490  0.56496334  0.76111681    -0.73700
C2075       C  0.97465704  0.54573430  0.78187545     0.98700
O2076       O  0.03247273  0.54103358  0.86440780    -0.62500
O2077       O  0.11563210  0.58103637  0.74657630    -0.57300
O2078       O  0.05245065  0.54023182  0.80411632    -0.94000
O2079       O  0.09109328  0.56152785  0.79478971    -0.92400
O2080       O  0.12676863  0.63656425  0.83562083    -0.92800
O2081       O  0.10152816  0.60188478  0.87890849    -0.91500
C2082       C  0.07784352  0.54133672  0.80601880     1.17500
H2083       H  0.10093405  0.64729463  0.78583001     0.33500
H2084       H  0.03599113  0.61264988  0.87436896     0.44300
H2085       H  0.02616791  0.56406669  0.76094077     0.37800
H2086       H  0.99052514  0.66872313  0.77752053     0.34300
H2087       H  0.09246478  0.65269305  0.90330510     0.26100
H2088       H  0.94386218  0.65261607  0.84298023     0.32000
H2089       H  0.93681693  0.60907618  0.75380046     0.38000
H2090       H  0.13182505  0.61839705  0.82822569     0.32400
H2091       H  0.11600342  0.58422419  0.72420174     0.31300
H2092       H  0.06746499  0.55482776  0.72311499     0.33000
H2093       H  0.99963954  0.57652898  0.70845238     0.31900
H2094       H  0.09070950  0.58499288  0.87807110     0.35900
H2095       H  0.03083748  0.52358797  0.85371602     0.28700
H2096       H  0.04957795  0.72537634  0.74752996     0.32900
H2097       H  0.98800884  0.65852617  0.71865937     0.35800
H2098       H  0.12940530  0.59350311  0.75481474     0.28400
H2099       H  0.05166820  0.54265427  0.86994440     0.41200
H2100       H  0.00007646  0.67156760  0.89742816     0.31300
H2101       H  0.06109351  0.65157891  0.90206116     0.38900
H2102       H  0.01534745  0.60310897  0.69953240     0.30800
H2103       H  0.95274556  0.67642987  0.82096912     0.30800
H2104       H  0.02370486  0.71049590  0.73546497     0.31100
Zr2105     Zr  0.19058387  0.76814721  0.90662181     2.17500
O2106       O  0.18664822  0.80705696  0.87139921    -0.51300
O2107       O  0.15883974  0.73935456  0.87978070    -0.74500
O2108       O  0.21238839  0.75827471  0.85890329    -0.81300
O2109       O  0.14114787  0.79570582  0.96583479    -0.83000
O2110       O  0.25478026  0.74184918  0.86556484    -0.78600
O2111       O  0.14850259  0.79190971  0.91474649    -0.90300
O2112       O  0.16203208  0.69937589  0.90646719    -0.76200
O2113       O  0.21462449  0.72636005  0.91068235    -0.85700
O2114       O  0.16946540  0.74394221  0.94779001    -0.85400
O2115       O  0.23683306  0.77973863  0.91581198    -0.72200
O2116       O  0.19473233  0.79568431  0.95087991    -0.84300
Zr2117     Zr  0.24351708  0.74106251  0.00499983     2.26400
Zr2118     Zr  0.26087216  0.73716078  0.92180535     2.06300
Zr2119     Zr  0.17538991  0.77034477  0.99303453     2.10000
Zr2120     Zr  0.19273068  0.70206100  0.95053136     1.78800
O2121       O  0.16416112  0.81256217  0.01818327    -0.93100
O2122       O  0.20961079  0.66281039  0.92382810    -0.40900
O2123       O  0.19800765  0.72764070  0.99654406    -0.77500
O2124       O  0.23903204  0.71205678  0.96193390    -0.96200
O2125       O  0.26486710  0.76573170  0.96488290    -0.89500
O2126       O  0.22067625  0.78314178  0.00206176    -0.92400
C2127       C  0.15222852  0.71443133  0.88466290     1.01400
C2128       C  0.13514358  0.80028365  0.93771985     1.14300
C2129       C  0.23467343  0.74928443  0.84857435     1.05100
O2130       O  0.27405102  0.69420790  0.89977993    -0.94500
O2131       O  0.29712597  0.71667310  0.95566188    -0.90300
O2132       O  0.28689016  0.72217474  0.00554423    -0.83400
C2133       C  0.30232654  0.71400779  0.98474246     1.11700
O2134       O  0.23577515  0.84646540  0.92583042    -0.96500
Zr2135     Zr  0.24046397  0.80720152  0.96021428     1.88900
O2136       O  0.27200352  0.77359668  0.52601209    -0.73200
O2137       O  0.30197512  0.75921454  0.90421118    -0.52400
O2138       O  0.28152710  0.82486866  0.93761989    -0.97100
O2139       O  0.22157156  0.84727362  0.98387281    -0.54300
O2140       O  0.27052069  0.81379111  0.00270162    -0.73700
C2141       C  0.27928827  0.79795018  0.51919479     0.98700
O2142       O  0.24708981  0.70228080  0.53836512    -0.62500
O2143       O  0.13356871  0.73605118  0.50325722    -0.57300
O2144       O  0.22278270  0.74979236  0.55344379    -0.94000
O2145       O  0.17896254  0.76160279  0.54891820    -0.92400
O2146       O  0.15119994  0.68534202  0.97332592    -0.92800
O2147       O  0.19747305  0.66095146  0.98217649    -0.91500
C2148       C  0.20022529  0.75605923  0.56481640     1.17500
H2149       H  0.15062779  0.74108452  0.94367523     0.33500
H2150       H  0.24834527  0.69512091  0.96591810     0.44300
H2151       H  0.21707971  0.79281937  0.51987870     0.37800
H2152       H  0.24379798  0.78988491  0.89846749     0.34300
H2153       H  0.19368215  0.65104663  0.92089466     0.26100
H2154       H  0.29603321  0.77631028  0.89391903     0.32000
H2155       H  0.29437083  0.80960204  0.93931574     0.38000
H2156       H  0.13673313  0.69138136  0.95916778     0.32400
H2157       H  0.13693002  0.72863987  0.52411546     0.31300
H2158       H  0.13300427  0.79352975  0.53062359     0.33000
H2159       H  0.23727901  0.85875800  0.98888868     0.31900
H2160       H  0.19946742  0.66755156  0.00325363     0.35900
H2161       H  0.22878291  0.69677696  0.54461113     0.28700
H2162       H  0.20459581  0.80945651  0.86219779     0.32900
H2163       H  0.22895102  0.83893826  0.90651186     0.35800
H2164       H  0.14139338  0.72889785  0.01790292     0.28400
H2165       H  0.25298606  0.68750404  0.52497779     0.41200
H2166       H  0.27609070  0.68137902  0.91737591     0.31300
H2167       H  0.21384729  0.66987166  0.90308886     0.38900
H2168       H  0.21480398  0.84079888  0.00392740     0.30800
H2169       H  0.31117063  0.76513415  0.92304543     0.30800
H2170       H  0.18467386  0.82299155  0.88461429     0.31100
Zr2171     Zr  0.18900626  0.74039031  0.75473393     2.17500
O2172       O  0.17510888  0.70210286  0.78711137    -0.51300
O2173       O  0.16580965  0.77385868  0.78322636    -0.74500
O2174       O  0.21148460  0.74248312  0.80341166    -0.81300
O2175       O  0.13937344  0.72159606  0.69406284    -0.83000
O2176       O  0.25636199  0.74985599  0.79867176    -0.78600
O2177       O  0.14350198  0.72560862  0.74557188    -0.90300
O2178       O  0.18244412  0.81378674  0.76441003    -0.76200
O2179       O  0.22320287  0.77418922  0.75465370    -0.85700
O2180       O  0.17394633  0.77315838  0.71741797    -0.85400
O2181       O  0.23033626  0.71729095  0.74541241    -0.72200
O2182       O  0.18488012  0.71693025  0.70803211    -0.84300
Zr2183     Zr  0.24616271  0.75842626  0.65872284     2.26400
Zr2184     Zr  0.26454858  0.75212528  0.74253272     2.06300
Zr2185     Zr  0.17239151  0.75022593  0.66965589     2.10000
Zr2186     Zr  0.20841866  0.80648837  0.71770756     1.78800
O2187       O  0.13467814  0.73426909  0.63886867    -0.93100
O2188       O  0.23542286  0.83716084  0.74829751    -0.40900
O2189       O  0.20661965  0.78398110  0.66930673    -0.77500
O2190       O  0.24997780  0.78482722  0.70437683    -0.96200
O2191       O  0.26003024  0.72647540  0.69707032    -0.89500
O2192       O  0.21196174  0.72486643  0.65926716    -0.92400
C2193       C  0.16846996  0.79965626  0.78370801     1.01400
C2194       C  0.13167597  0.71716715  0.72150439     1.14300
C2195       C  0.23485788  0.74662859  0.81476471     1.05100
O2196       O  0.29458640  0.78103912  0.77176169    -0.94500
O2197       O  0.30330759  0.76895618  0.71140128    -0.90300
O2198       O  0.29363851  0.76492163  0.66094988    -0.83400
C2199       C  0.30963144  0.77067967  0.68276882     1.11700
O2200       O  0.20445252  0.65915911  0.73242390    -0.96500
Zr2201     Zr  0.22511825  0.69326446  0.69879340     1.88900
O2202       O  0.26537761  0.71976847  0.63282765    -0.73200
O2203       O  0.29539692  0.71442864  0.75234819    -0.52400
O2204       O  0.25966453  0.66295917  0.71960579    -0.97100
O2205       O  0.19750122  0.66108374  0.67071861    -0.54300
O2206       O  0.25147511  0.68054871  0.65612200    -0.73700
C2207       C  0.26457866  0.69370805  0.63569717     0.98700
O2208       O  0.26128618  0.79627055  0.62618579    -0.62500
O2209       O  0.14718283  0.79244237  0.66383517    -0.57300
O2210       O  0.22431822  0.76015870  0.60975491    -0.94000
O2211       O  0.17966142  0.75261865  0.61428086    -0.92400
O2212       O  0.17246820  0.83518301  0.69736821    -0.92800
O2213       O  0.22270738  0.84714051  0.68955106    -0.91500
C2214       C  0.20083951  0.75685265  0.59838105     1.17500
H2215       H  0.15666886  0.78058935  0.72249811     0.33500
H2216       H  0.26328346  0.79896073  0.70157275     0.44300
H2217       H  0.21039550  0.71555673  0.64015563     0.37800
H2218       H  0.23433203  0.70461093  0.76196307     0.34300
H2219       H  0.22370332  0.85306182  0.75154839     0.26100
H2220       H  0.30900304  0.71620681  0.73606149     0.32000
H2221       H  0.27433875  0.66321420  0.70451036     0.38000
H2222       H  0.16126939  0.83946089  0.71517514     0.32400
H2223       H  0.14812902  0.79709372  0.64176423     0.31300
H2224       H  0.12805114  0.75041145  0.62720054     0.33000
H2225       H  0.20140284  0.66474018  0.64889387     0.31900
H2226       H  0.23958345  0.84179996  0.67957906     0.35900
H2227       H  0.24494976  0.80716998  0.62194217     0.28700
H2228       H  0.16901915  0.71037711  0.80623146     0.32900
H2229       H  0.18643363  0.66645031  0.73685473     0.35800
H2230       H  0.12824298  0.78723279  0.66728269     0.28400
H2231       H  0.27214558  0.80798891  0.63962011     0.41200
H2232       H  0.28411846  0.79775630  0.77529315     0.31300
H2233       H  0.23672599  0.82806596  0.76863974     0.38900
H2234       H  0.17888147  0.66756829  0.67325016     0.30800
H2235       H  0.30515926  0.71933769  0.77119712     0.30800
H2236       H  0.19192518  0.69254481  0.79281369     0.31100
Zr2237     Zr  0.59127613  0.96361859  0.69563993     2.17500
O2238       O  0.55478164  0.98088119  0.66313787    -0.51300
O2239       O  0.55843546  0.98611961  0.72853697    -0.74500
O2240       O  0.55997879  0.92766635  0.68448812    -0.81300
O2241       O  0.64060176  0.01534652  0.65798141    -0.83000
O2242       O  0.56907607  0.88906674  0.71207167    -0.78600
O2243       O  0.60022628  0.99432203  0.65274719    -0.90300
O2244       O  0.57548487  0.98988586  0.77620756    -0.76200
O2245       O  0.59250224  0.94126545  0.74423651    -0.85700
O2246       O  0.61906316  0.99259176  0.72524402    -0.85400
O2247       O  0.61013551  0.91911815  0.68627029    -0.72200
O2248       O  0.63433764  0.96521077  0.67153483    -0.84300
Zr2249     Zr  0.68330134  0.92685610  0.74041420     2.26400
Zr2250     Zr  0.61256866  0.89757500  0.73601008     2.06300
Zr2251     Zr  0.66280497  0.99313935  0.70180919     2.10000
Zr2252     Zr  0.62072972  0.96975997  0.77375208     1.78800
O2253       O  0.68767983  0.02543153  0.66981718    -0.93100
O2254       O  0.59892105  0.94620569  0.81630331    -0.40900
O2255       O  0.66505250  0.97116044  0.75096024    -0.77500
O2256       O  0.64073207  0.92587963  0.76649882    -0.96200
O2257       O  0.65469492  0.89925429  0.71065365    -0.89500
O2258       O  0.68101567  0.94908449  0.69175778    -0.92400
C2259       C  0.55628448  0.99288249  0.75664658     1.01400
C2260       C  0.61848674  0.01104639  0.64364241     1.14300
C2261       C  0.55537233  0.90278986  0.69223338     1.05100
O2262       O  0.58633726  0.88675730  0.78125242    -0.94500
O2263       O  0.64207262  0.86575784  0.76399963    -0.90300
O2264       O  0.68169676  0.88736970  0.77271212    -0.83400
C2265       C  0.66569676  0.86721209  0.77587815     1.11700
O2266       O  0.62920922  0.93119927  0.61422468    -0.96500
Zr2267     Zr  0.65256221  0.92142888  0.66223624     1.88900
O2268       O  0.70734745  0.89001356  0.71397124    -0.73200
O2269       O  0.60852033  0.85040321  0.72045571    -0.52400
O2270       O  0.63668366  0.87922426  0.64001206    -0.97100
O2271       O  0.68459336  0.93710335  0.62389087    -0.54300
O2272       O  0.68722103  0.88734091  0.66759547    -0.73700
C2273       C  0.70397367  0.87869028  0.68786308     0.98700
O2274       O  0.71197554  0.93000701  0.78565068    -0.62500
O2275       O  0.65996092  0.03117766  0.73637910    -0.57300
O2276       O  0.72405251  0.95194543  0.72953233    -0.94000
O2277       O  0.71215722  0.99270526  0.70785059    -0.92400
O2278       O  0.62747325  0.01640540  0.78969725    -0.92800
O2279       O  0.64461437  0.96925868  0.82234748    -0.91500
C2280       C  0.72972269  0.97531538  0.71761424     1.17500
H2281       H  0.61140534  0.01057991  0.72640722     0.33500
H2282       H  0.64287148  0.91758670  0.78655078     0.44300
H2283       H  0.69800535  0.94994049  0.68144282     0.37800
H2284       H  0.60055238  0.90828750  0.67172502     0.34300
H2285       H  0.58972438  0.96070519  0.82752213     0.26100
H2286       H  0.59146696  0.84369869  0.72932809     0.32000
H2287       H  0.63561968  0.86613379  0.65746542     0.38000
H2288       H  0.61424901  0.01891980  0.80613209     0.32400
H2289       H  0.67850416  0.03828681  0.73795085     0.31300
H2290       H  0.69246829  0.04061121  0.68331648     0.33000
H2291       H  0.70226944  0.93036230  0.63114162     0.31900
H2292       H  0.66087857  0.98039839  0.81863024     0.35900
H2293       H  0.71808520  0.94917575  0.78622794     0.28700
H2294       H  0.53820059  0.97870215  0.67525110     0.32900
H2295       H  0.61016662  0.93334541  0.61995311     0.35800
H2296       H  0.65000449  0.04546703  0.72478268     0.28400
H2297       H  0.69956487  0.92828374  0.80312981     0.41200
H2298       H  0.58857410  0.86687633  0.78443938     0.31300
H2299       H  0.58418692  0.93573736  0.80685290     0.38900
H2300       H  0.68550910  0.95708486  0.62623066     0.30800
H2301       H  0.60516093  0.85136530  0.69817876     0.30800
H2302       H  0.55277206  0.96769474  0.64650462     0.31100
Zr2303     Zr  0.93817351  0.95111209  0.73189858     2.17500
O2304       O  0.96908073  0.94642358  0.77473019    -0.51300
O2305       O  0.96589093  0.98914733  0.71656139    -0.74500
O2306       O  0.97804055  0.92879224  0.71456685    -0.81300
O2307       O  0.88219502  0.98678193  0.77222476    -0.83000
O2308       O  0.97186097  0.89612068  0.67923715    -0.78600
O2309       O  0.92301293  0.96748009  0.78138741    -0.90300
O2310       O  0.96627729  0.98374971  0.66583079    -0.76200
O2311       O  0.94124713  0.93917948  0.68002383    -0.85700
O2312       O  0.91158838  0.98472230  0.70587322    -0.85400
O2313       O  0.92499967  0.90423459  0.72703831    -0.72200
O2314       O  0.89370787  0.94554526  0.74851086    -0.84300
Zr2315     Zr  0.85288418  0.91873522  0.67057496     2.26400
Zr2316     Zr  0.92379605  0.89437940  0.67331791     2.06300
Zr2317     Zr  0.86601932  0.97722114  0.72142106     2.10000
Zr2318     Zr  0.91700855  0.97287299  0.65411666     1.78800
O2319       O  0.84155392  0.00818584  0.75370697    -0.93100
O2320       O  0.94057185  0.96218517  0.60750170    -0.40900
O2321       O  0.87025097  0.96505452  0.66960410    -0.77500
O2322       O  0.89667880  0.92804691  0.64808352    -0.96200
O2323       O  0.88136371  0.88704031  0.69651371    -0.89500
O2324       O  0.85120898  0.93068512  0.72253406    -0.92400
C2325       C  0.97818351  0.99059931  0.69110172     1.01400
C2326       C  0.90191496  0.98033028  0.78987013     1.14300
C2327       C  0.98672130  0.91130464  0.69567862     1.05100
O2328       O  0.93917191  0.89122419  0.62095451    -0.94500
O2329       O  0.89342243  0.86175832  0.64896334    -0.90300
O2330       O  0.86107979  0.88872542  0.62950780    -0.83400
C2331       C  0.87196429  0.86552919  0.63302428     1.11700
O2332       O  0.90603182  0.90098710  0.79644220    -0.96500
Zr2333     Zr  0.88130469  0.89978526  0.74839692     1.88900
O2334       O  0.82720573  0.87887695  0.69332067    -0.73200
O2335       O  0.94161819  0.84993017  0.68772866    -0.52400
O2336       O  0.89640967  0.85540299  0.76744335    -0.97100
O2337       O  0.84846048  0.90808632  0.78798653    -0.54300
O2338       O  0.84689541  0.86827528  0.73870940    -0.73700
C2339       C  0.82926026  0.86417554  0.71825360     0.98700
O2340       O  0.82188416  0.92453448  0.62751881    -0.62500
O2341       O  0.86839524  0.02063497  0.69363924    -0.57300
O2342       O  0.81075788  0.94161297  0.67848649    -0.94000
O2343       O  0.81735582  0.97538834  0.71216763    -0.92400
O2344       O  0.91525801  0.02246523  0.65288310    -0.92800
O2345       O  0.89628493  0.98944908  0.60688267    -0.91500
C2346       C  0.80218725  0.96055716  0.69543857     1.17500
H2347       H  0.91759439  0.00296220  0.70990689     0.33500
H2348       H  0.89603314  0.92465459  0.62646986     0.44300
H2349       H  0.83343789  0.92849203  0.73081955     0.37800
H2350       H  0.93752426  0.89239893  0.73771520     0.34300
H2351       H  0.95273034  0.97787501  0.60387090     0.26100
H2352       H  0.92647891  0.84050204  0.69798074     0.32000
H2353       H  0.88402672  0.85068577  0.78433334     0.38000
H2354       H  0.93386964  0.02840019  0.65718464     0.32400
H2355       H  0.86148244  0.01690416  0.67292756     0.31300
H2356       H  0.83051622  0.99634933  0.76724709     0.33000
H2357       H  0.85037193  0.89234405  0.80231919     0.31900
H2358       H  0.87682343  0.98663201  0.61003485     0.35900
H2359       H  0.83315627  0.92905458  0.60958733     0.28700
H2360       H  0.98591623  0.95486273  0.76730540     0.32900
H2361       H  0.90164100  0.91880192  0.80522960     0.35800
H2362       H  0.85433735  0.03203075  0.70271090     0.28400
H2363       H  0.81427730  0.90630496  0.62351929     0.41200
H2364       H  0.94700312  0.87278235  0.61990393     0.31300
H2365       H  0.95265193  0.94700967  0.61351823     0.38900
H2366       H  0.83072592  0.90531918  0.77823453     0.30800
H2367       H  0.94359668  0.84047991  0.66815971     0.30800
H2368       H  0.97292008  0.92669028  0.77617051     0.31100
Zr2369     Zr  0.57797876  0.52335995  0.99531819     2.17500
O2370       O  0.53936859  0.51697705  0.53464660    -0.51300
O2371       O  0.54516645  0.50356715  0.96067617    -0.74500
O2372       O  0.54728019  0.55914816  0.00455028    -0.81300
O2373       O  0.62584813  0.47020359  0.03326836    -0.83000
O2374       O  0.55780880  0.60050722  0.98444524    -0.78600
O2375       O  0.58587673  0.49152868  0.03837990    -0.90300
O2376       O  0.55669516  0.51354323  0.91195896    -0.76200
O2377       O  0.57985326  0.54973540  0.94951298    -0.85700
O2378       O  0.60339622  0.49542552  0.96307029    -0.85400
O2379       O  0.59738579  0.56624047  0.01007954    -0.72200
O2380       O  0.61995763  0.51781496  0.02041678    -0.84300
Zr2381     Zr  0.66999596  0.55949178  0.95817131     2.26400
Zr2382     Zr  0.60142778  0.59154350  0.96266814     2.06300
Zr2383     Zr  0.64657020  0.49090898  0.98808420     2.10000
Zr2384     Zr  0.60599081  0.52253387  0.91719299     1.78800
O2385       O  0.66575535  0.45023451  0.01255623    -0.93100
O2386       O  0.59176070  0.54825586  0.87173463    -0.40900
O2387       O  0.64975945  0.51750419  0.94191319    -0.77500
O2388       O  0.62847719  0.56486938  0.92977347    -0.96200
O2389       O  0.64255193  0.58554608  0.98996270    -0.89500
O2390       O  0.66637852  0.53309455  0.00398167    -0.92400
C2391       C  0.53943711  0.50548345  0.93207222     1.01400
C2392       C  0.60398555  0.47450630  0.04763299     1.14300
C2393       C  0.54293580  0.58448424  0.00032390     1.05100
O2394       O  0.57625058  0.60396358  0.91664716    -0.94500
O2395       O  0.63214193  0.62471654  0.93979385    -0.90300
O2396       O  0.67367639  0.60570258  0.93964905    -0.83400
C2397       C  0.65749208  0.62553918  0.93481308     1.11700
O2398       O  0.61092793  0.55433725  0.58523276    -0.96500
Zr2399     Zr  0.63902095  0.55952229  0.03587836     1.88900
O2400       O  0.69769589  0.58754209  0.99234689    -0.73200
O2401       O  0.59966538  0.63700386  0.98366655    -0.52400
O2402       O  0.62716038  0.60154103  0.06078518    -0.97100
O2403       O  0.66075703  0.53977073  0.58168016    -0.54300
O2404       O  0.67811094  0.58811406  0.03888858    -0.73700
C2405       C  0.69640154  0.59549785  0.02017506     0.98700
O2406       O  0.69729633  0.55921065  0.91238724    -0.62500
O2407       O  0.64011303  0.45647199  0.94935280    -0.57300
O2408       O  0.70879682  0.53103021  0.96574454    -0.94000
O2409       O  0.69568081  0.49015154  0.98605448    -0.92400
O2410       O  0.60403596  0.47569689  0.90000100    -0.92800
O2411       O  0.63407622  0.51637527  0.87259340    -0.91500
C2412       C  0.71364528  0.50755824  0.97784669     1.17500
H2413       H  0.59449437  0.47817670  0.96019617     0.33500
H2414       H  0.63187788  0.57504285  0.91108394     0.44300
H2415       H  0.68313255  0.53083572  0.01486443     0.37800
H2416       H  0.58732272  0.57591635  0.02506566     0.34300
H2417       H  0.58430954  0.53440101  0.85792976     0.26100
H2418       H  0.58485981  0.64635372  0.97254568     0.32000
H2419       H  0.63549228  0.61857223  0.55232073     0.38000
H2420       H  0.58482659  0.47191675  0.89609908     0.32400
H2421       H  0.65840001  0.45117185  0.94320299     0.31300
H2422       H  0.67358648  0.43953100  0.99597340     0.33000
H2423       H  0.67827297  0.54918147  0.58323349     0.31900
H2424       H  0.64703395  0.50199327  0.87873697     0.35900
H2425       H  0.69791836  0.53983617  0.90666489     0.28700
H2426       H  0.52266691  0.51871833  0.52239142     0.32900
H2427       H  0.59547399  0.54310783  0.57876536     0.35800
H2428       H  0.63291651  0.44030750  0.96046693     0.28400
H2429       H  0.68590937  0.56793529  0.89638540     0.41200
H2430       H  0.57502079  0.62406133  0.91693666     0.31300
H2431       H  0.57590738  0.55864453  0.87827060     0.38900
H2432       H  0.66516645  0.52133728  0.57459671     0.30800
H2433       H  0.59311362  0.63441359  0.00480439     0.30800
H2434       H  0.53957474  0.53286357  0.54816522     0.31100
Zr2435     Zr  0.91681640  0.50236084  0.96230106     2.17500
O2436       O  0.93284028  0.47773853  0.91882860    -0.51300
O2437       O  0.95170005  0.48568059  0.99539013    -0.74500
O2438       O  0.95580056  0.52488716  0.94228024    -0.81300
O2439       O  0.85666832  0.45535171  0.95833344    -0.83000
O2440       O  0.95448356  0.56363296  0.96880438    -0.78600
O2441       O  0.90084250  0.45576033  0.96599457    -0.90300
O2442       O  0.95298605  0.51501697  0.53118351    -0.76200
O2443       O  0.92582591  0.54019463  0.99395649    -0.85700
O2444       O  0.89239117  0.49240540  0.00752485    -0.85400
O2445       O  0.90328024  0.54301583  0.93423237    -0.72200
O2446       O  0.87106103  0.50047153  0.94647818    -0.84300
Zr2447     Zr  0.83864566  0.56669363  0.99440503     2.26400
Zr2448     Zr  0.90886113  0.58033397  0.96868906     2.06300
Zr2449     Zr  0.84586137  0.49134845  0.99218393     2.10000
Zr2450     Zr  0.90373267  0.52776794  0.53789784     1.78800
O2451       O  0.81643050  0.45176169  0.98948734    -0.93100
O2452       O  0.92646748  0.56225464  0.56756964    -0.40900
O2453       O  0.85502569  0.52850735  0.02475915    -0.77500
O2454       O  0.88445509  0.56846119  0.51377726    -0.96200
O2455       O  0.86434556  0.57651148  0.95042025    -0.89500
O2456       O  0.83137854  0.52980255  0.96147036    -0.92400
C2457       C  0.96681070  0.50084912  0.51194307     1.01400
C2458       C  0.88027220  0.44832020  0.95095485     1.14300
C2459       C  0.96475700  0.54845837  0.94865872     1.05100
O2460       O  0.94026324  0.61533400  0.48330900    -0.94500
O2461       O  0.88940131  0.62196405  0.48805943    -0.90300
O2462       O  0.84606313  0.61199571  0.49898582    -0.83400
C2463       C  0.86561754  0.62859606  0.49625170     1.11700
O2464       O  0.87259048  0.51027702  0.87637350    -0.96500
Zr2465     Zr  0.85784198  0.53940863  0.91734110     1.88900
O2466       O  0.81586950  0.59255138  0.95238445    -0.73200
O2467       O  0.91256333  0.60205913  0.91832651    -0.52400
O2468       O  0.87756305  0.56170555  0.87257713    -0.97100
O2469       O  0.81797376  0.51815645  0.89550090    -0.54300
O2470       O  0.82923130  0.57783500  0.90611896    -0.73700
C2471       C  0.81610915  0.59400631  0.92283540     0.98700
O2472       O  0.81614741  0.58059935  0.53885939    -0.62500
O2473       O  0.85298678  0.46999222  0.04227020    -0.57300
O2474       O  0.79452466  0.54789479  0.00340097    -0.94000
O2475       O  0.79845126  0.50215454  0.99848073    -0.92400
O2476       O  0.90730289  0.48823370  0.57222465    -0.92800
O2477       O  0.88414783  0.53195260  0.58825872    -0.91500
C2478       C  0.78462124  0.52388778  0.00170048     1.17500
H2479       H  0.89826592  0.47550197  0.01702992     0.33500
H2480       H  0.88548581  0.58301767  0.52818032     0.44300
H2481       H  0.81308610  0.52865793  0.95436114     0.37800
H2482       H  0.91450246  0.54557248  0.91652439     0.34300
H2483       H  0.94259245  0.55293834  0.57592971     0.26100
H2484       H  0.92017034  0.62030209  0.92218234     0.32000
H2485       H  0.86211709  0.56786654  0.85990767     0.38000
H2486       H  0.92505085  0.48025349  0.56794579     0.32400
H2487       H  0.83713519  0.47512977  0.05429299     0.31300
H2488       H  0.80777819  0.45011074  0.00970107     0.33000
H2489       H  0.80280128  0.53012887  0.90064004     0.31900
H2490       H  0.86721357  0.54201873  0.58458242     0.35900
H2491       H  0.83034374  0.58886757  0.55160704     0.28700
H2492       H  0.95189465  0.47384433  0.92364625     0.32900
H2493       H  0.85839616  0.51119688  0.86046237     0.35800
H2494       H  0.85096437  0.45020938  0.03908090     0.28400
H2495       H  0.80492054  0.59608338  0.53166913     0.41200
H2496       H  0.94443179  0.61120492  0.50504961     0.31300
H2497       H  0.93354257  0.57536235  0.55213310     0.38900
H2498       H  0.81513909  0.50133255  0.90792193     0.30800
H2499       H  0.92696010  0.59225614  0.90777951     0.30800
H2500       H  0.93326054  0.49169413  0.90221471     0.31100
Zr2501     Zr  0.76826646  0.71064634  0.88676291     2.17500
O2502       O  0.80482856  0.69772063  0.92151477    -0.51300
O2503       O  0.73355950  0.68187242  0.90991925    -0.74500
O2504       O  0.76515088  0.73242056  0.93484506    -0.81300
O2505       O  0.78851308  0.65428328  0.83558911    -0.83000
O2506       O  0.75393514  0.77692234  0.92977810    -0.78600
O2507       O  0.78623789  0.66636434  0.88523859    -0.90300
O2508       O  0.69467337  0.68821899  0.88347798    -0.76200
O2509       O  0.72839348  0.73656688  0.88328805    -0.85700
O2510       O  0.74394199  0.69107658  0.84595947    -0.85400
O2511       O  0.78460841  0.75596192  0.87797407    -0.72200
O2512       O  0.79786187  0.71349507  0.84370614    -0.84300
Zr2513     Zr  0.74691701  0.76740186  0.78865151     2.26400
Zr2514     Zr  0.74433817  0.78214460  0.87426228     2.06300
Zr2515     Zr  0.77266252  0.69387873  0.80273713     2.10000
Zr2516     Zr  0.70472644  0.71794456  0.84089461     1.78800
O2517       O  0.81372956  0.67862687  0.77884804    -0.93100
O2518       O  0.66644027  0.74041290  0.86340525    -0.40900
O2519       O  0.73285133  0.72106309  0.79701981    -0.77500
O2520       O  0.71855094  0.76369406  0.83264063    -0.96200
O2521       O  0.77171008  0.78693704  0.82942878    -0.89500
O2522       O  0.78639412  0.74016878  0.79246157    -0.92400
C2523       C  0.70855386  0.67715465  0.90500274     1.01400
C2524       C  0.79145938  0.64932368  0.86470912     1.14300
C2525       C  0.76075240  0.75578346  0.94593607     1.05100
O2526       O  0.70565707  0.79818089  0.90235911    -0.94500
O2527       O  0.72236576  0.81918503  0.84616988    -0.90300
O2528       O  0.72180673  0.80863791  0.79571258    -0.83400
C2529       C  0.71534466  0.82342965  0.81823754     1.11700
O2530       O  0.84985908  0.75345368  0.86574246    -0.96500
Zr2531     Zr  0.81103434  0.75985387  0.83243589     1.88900
O2532       O  0.77771792  0.79930616  0.76300207    -0.73200
O2533       O  0.76983095  0.82226338  0.88836936    -0.52400
O2534       O  0.83143000  0.80099237  0.85218689    -0.97100
O2535       O  0.84894813  0.74018255  0.80597734    -0.54300
O2536       O  0.81661818  0.79092541  0.78854225    -0.73700
C2537       C  0.80296520  0.80299985  0.76722490     0.98700
O2538       O  0.71005755  0.77108841  0.75198283    -0.62500
O2539       O  0.74640376  0.65580627  0.78378894    -0.57300
O2540       O  0.75493400  0.74692491  0.74058363    -0.94000
O2541       O  0.76743401  0.70248998  0.74679203    -0.92400
O2542       O  0.68579431  0.67609117  0.82094811    -0.92800
O2543       O  0.67016361  0.72615776  0.80220696    -0.91500
C2544       C  0.76192098  0.72390874  0.73016401     1.17500
H2545       H  0.73924215  0.67234925  0.85045524     0.33500
H2546       H  0.70200382  0.77355631  0.82965002     0.44300
H2547       H  0.79680170  0.74135884  0.77399559     0.37800
H2548       H  0.79541540  0.76171972  0.89504472     0.34300
H2549       H  0.65199324  0.72655725  0.86341317     0.26100
H2550       H  0.75846620  0.83129709  0.90355197     0.32000
H2551       H  0.81927912  0.81590579  0.84550800     0.38000
H2552       H  0.69530210  0.67336294  0.80150784     0.32400
H2553       H  0.75960707  0.64418014  0.77351844     0.31300
H2554       H  0.82694827  0.67710574  0.79575220     0.33000
H2555       H  0.84378253  0.74020746  0.78413085     0.31900
H2556       H  0.67963607  0.72526669  0.78248147     0.35900
H2557       H  0.69377057  0.77361799  0.76438133     0.28700
H2558       H  0.79635417  0.69213258  0.94104850     0.32900
H2559       H  0.84959167  0.73385275  0.87146684     0.35800
H2560       H  0.74118337  0.64513155  0.80223605     0.28400
H2561       H  0.71276811  0.78874585  0.74110128     0.41200
H2562       H  0.69074780  0.78600492  0.89650610     0.31300
H2563       H  0.67137550  0.74212359  0.88519365     0.38900
H2564       H  0.84894662  0.72073048  0.81232900     0.30800
H2565       H  0.78526493  0.81508468  0.90035586     0.30800
H2566       H  0.81447266  0.71485308  0.92590763     0.31100
Zr2567     Zr  0.75772952  0.70936206  0.54150598     2.17500
O2568       O  0.72174551  0.69350110  0.00855270    -0.51300
O2569       O  0.79489910  0.68627261  0.51762808    -0.74500
O2570       O  0.75764603  0.73253751  0.99183492    -0.81300
O2571       O  0.72893264  0.65949149  0.59868116    -0.83000
O2572       O  0.77159271  0.77634577  0.99462505    -0.78600
O2573       O  0.73889640  0.66474861  0.54841338    -0.90300
O2574       O  0.83339031  0.69267426  0.54440319    -0.76200
O2575       O  0.79794849  0.73485279  0.54465697    -0.85700
O2576       O  0.78059411  0.69046706  0.58464967    -0.85400
O2577       O  0.74218284  0.75531287  0.54584821    -0.72200
O2578       O  0.72716509  0.71546612  0.58292825    -0.84300
Zr2579     Zr  0.77789968  0.77060643  0.63572914     2.26400
Zr2580     Zr  0.78315287  0.78094140  0.54907818     2.06300
Zr2581     Zr  0.75093912  0.69708015  0.62639457     2.10000
Zr2582     Zr  0.82021467  0.71699942  0.58910014     1.78800
O2583       O  0.71036557  0.68242011  0.65272029    -0.93100
O2584       O  0.86272715  0.73732745  0.57359601    -0.40900
O2585       O  0.79122022  0.72372142  0.63159776    -0.77500
O2586       O  0.80725201  0.76324611  0.59327060    -0.96200
O2587       O  0.75456830  0.78867083  0.59219886    -0.89500
O2588       O  0.73790129  0.74398049  0.63247228    -0.92400
C2589       C  0.82016965  0.68308716  0.52194114     1.01400
C2590       C  0.72859131  0.65143935  0.57077521     1.14300
C2591       C  0.76313465  0.75570266  0.97960181     1.05100
O2592       O  0.82374996  0.78849370  0.51953226    -0.94500
O2593       O  0.80878592  0.81725964  0.57252658    -0.90300
O2594       O  0.80808233  0.80897917  0.62394101    -0.83400
C2595       C  0.81592330  0.82238700  0.60000554     1.11700
O2596       O  0.67349351  0.75036016  0.56219306    -0.96500
Zr2597     Zr  0.71459312  0.76236753  0.58950064     1.88900
O2598       O  0.74626778  0.80525381  0.65331870    -0.73200
O2599       O  0.76347037  0.82381366  0.53129212    -0.52400
O2600       O  0.69904670  0.79845426  0.55470044    -0.97100
O2601       O  0.67710605  0.74891456  0.62200386    -0.54300
O2602       O  0.70932811  0.80094582  0.62329751    -0.73700
C2603       C  0.72270922  0.81272136  0.64449951     0.98700
O2604       O  0.80583868  0.78245954  0.67929539    -0.62500
O2605       O  0.77731501  0.65822832  0.64475055    -0.57300
O2606       O  0.77159191  0.74717401  0.68468870    -0.94000
O2607       O  0.75729099  0.70327689  0.68128474    -0.92400
O2608       O  0.83279121  0.67225363  0.60959542    -0.92800
O2609       O  0.85379129  0.72290772  0.62904744    -0.91500
C2610       C  0.76424953  0.72417670  0.69660048     1.17500
H2611       H  0.78463603  0.67144369  0.58197916     0.33500
H2612       H  0.82437052  0.77213099  0.59557557     0.44300
H2613       H  0.72726971  0.74587480  0.65062403     0.37800
H2614       H  0.73171788  0.76086543  0.52819207     0.34300
H2615       H  0.87403569  0.72184276  0.56755402     0.26100
H2616       H  0.76199415  0.83496956  0.54973940     0.32000
H2617       H  0.70956181  0.81469854  0.56044730     0.38000
H2618       H  0.84942248  0.66755008  0.59871931     0.32400
H2619       H  0.79205698  0.66622886  0.65690666     0.31300
H2620       H  0.70574188  0.69764182  0.66612451     0.33000
H2621       H  0.68022773  0.75805054  0.64161985     0.31900
H2622       H  0.84681185  0.73792863  0.64139572     0.35900
H2623       H  0.82444450  0.78353483  0.67164320     0.28700
H2624       H  0.73045664  0.68594511  0.99035547     0.32900
H2625       H  0.65969334  0.76343751  0.56872872     0.35800
H2626       H  0.76578244  0.64887824  0.66001945     0.28400
H2627       H  0.80086100  0.80145621  0.68359004     0.41200
H2628       H  0.81889098  0.80283317  0.50426849     0.31300
H2629       H  0.85856824  0.74721768  0.55421944     0.38900
H2630       H  0.68009335  0.72935526  0.62669352     0.30800
H2631       H  0.77777319  0.83278772  0.51913128     0.30800
H2632       H  0.71201769  0.70981987  0.00082140     0.31100
Zr2633     Zr  0.53917118  0.31626305  0.60008223     2.17500
O2634       O  0.54112223  0.27110496  0.62458798    -0.51300
O2635       O  0.57771884  0.29651693  0.57078508    -0.74500
O2636       O  0.51350739  0.28291768  0.57163326    -0.81300
O2637       O  0.57250063  0.34520238  0.66898486    -0.83000
O2638       O  0.51448805  0.30308125  0.52510663    -0.78600
O2639       O  0.54476413  0.31176433  0.65460275    -0.90300
O2640       O  0.60782576  0.32981300  0.56066158    -0.76200
O2641       O  0.55000507  0.33563602  0.55196303    -0.85700
O2642       O  0.57268960  0.35014180  0.61015848    -0.85400
O2643       O  0.49623815  0.33491086  0.58351842    -0.72200
O2644       O  0.51851590  0.34974427  0.63292193    -0.84300
Zr2645     Zr  0.52043210  0.42103503  0.57390295     2.26400
Zr2646     Zr  0.50786010  0.35284042  0.53425936     2.06300
Zr2647     Zr  0.55215732  0.38375934  0.64252227     2.10000
Zr2648     Zr  0.58237356  0.37026148  0.56191486     1.78800
O2649       O  0.52360568  0.39281205  0.68603358    -0.93100
O2650       O  0.59248658  0.36488466  0.50792009    -0.40900
O2651       O  0.56205893  0.40277146  0.59313050    -0.77500
O2652       O  0.54159844  0.38754762  0.54267427    -0.96200
O2653       O  0.48674618  0.38772472  0.56434682    -0.89500
O2654       O  0.51110766  0.40362901  0.62383318    -0.92400
C2655       C  0.59990148  0.30533410  0.55875921     1.01400
C2656       C  0.56550656  0.32017310  0.66863422     1.14300
C2657       C  0.51369942  0.28145580  0.54251217     1.05100
O2658       O  0.50613212  0.33992068  0.48096286    -0.94500
O2659       O  0.51020104  0.38875642  0.49555080    -0.90300
O2660       O  0.51345202  0.42926635  0.51953901    -0.83400
C2661       C  0.51241356  0.41482393  0.49557638     1.11700
O2662       O  0.44915920  0.33487639  0.63488410    -0.96500
Zr2663     Zr  0.47739144  0.37113505  0.61434974     1.88900
O2664       O  0.48152627  0.44693279  0.58903283    -0.73200
O2665       O  0.45965464  0.34774812  0.52718325    -0.52400
O2666       O  0.43600328  0.36712717  0.58516566    -0.97100
O2667       O  0.46259822  0.37212040  0.66718294    -0.54300
O2668       O  0.45751626  0.41820350  0.61927944    -0.73700
C2669       C  0.46226597  0.44225226  0.60754875     0.98700
O2670       O  0.53228034  0.46583458  0.55415428    -0.62500
O2671       O  0.58226149  0.40079388  0.68189225    -0.57300
O2672       O  0.53808557  0.44873973  0.61446534    -0.94000
O2673       O  0.57463644  0.42741514  0.63076095    -0.92400
O2674       O  0.62409013  0.38105293  0.58820921    -0.92800
O2675       O  0.60605495  0.40875056  0.53868789    -0.91500
C2676       C  0.56302966  0.44885160  0.61982701     1.17500
H2677       H  0.58909433  0.34231425  0.61824777     0.33500
H2678       H  0.54895831  0.39557861  0.52437879     0.44300
H2679       H  0.50496187  0.41743674  0.63745492     0.37800
H2680       H  0.48282789  0.32082685  0.58157414     0.34300
H2681       H  0.60752848  0.35946204  0.00432432     0.26100
H2682       H  0.45371861  0.36569005  0.51895720     0.32000
H2683       H  0.42749654  0.38526043  0.58611529     0.38000
H2684       H  0.61842188  0.39001875  0.60710197     0.32400
H2685       H  0.57765174  0.39045372  0.70078427     0.31300
H2686       H  0.52479574  0.41271985  0.68882097     0.33000
H2687       H  0.46094334  0.39164409  0.67191645     0.31900
H2688       H  0.59041456  0.41347048  0.02197865     0.35900
H2689       H  0.54367265  0.46310819  0.53608771     0.28700
H2690       H  0.54995433  0.25928130  0.60967750     0.32900
H2691       H  0.46180501  0.31993536  0.64000688     0.35800
H2692       H  0.60023462  0.39406895  0.67630546     0.28400
H2693       H  0.51513999  0.47332884  0.54610911     0.41200
H2694       H  0.52496994  0.33588997  0.47570531     0.31300
H2695       H  0.58852722  0.34556514  0.50372825     0.38900
H2696       H  0.47817019  0.36568766  0.67943078     0.30800
H2697       H  0.45768663  0.33537167  0.50978613     0.30800
H2698       H  0.52238842  0.26444589  0.62565019     0.31100
Zr2699     Zr  0.55427537  0.15265452  0.50379100     2.17500
O2700       O  0.56026367  0.18236074  0.96191214    -0.51300
O2701       O  0.59096272  0.17958415  0.52774857    -0.74500
O2702       O  0.53042657  0.19575093  0.51472592    -0.81300
O2703       O  0.61417739  0.11229585  0.48882014    -0.83000
O2704       O  0.49847034  0.18285303  0.54859536    -0.78600
O2705       O  0.58475109  0.13963396  0.46465611    -0.90300
O2706       O  0.59296323  0.16518937  0.57732644    -0.76200
O2707       O  0.53660156  0.15274559  0.55352152    -0.85700
O2708       O  0.58427541  0.12510652  0.53427695    -0.85400
O2709       O  0.51019305  0.13203073  0.49818269    -0.72200
O2710       O  0.55258346  0.10693072  0.48299344    -0.84300
Zr2711     Zr  0.52280029  0.06100094  0.56094479     2.26400
Zr2712     Zr  0.49331145  0.13290783  0.54880159     2.06300
Zr2713     Zr  0.58338184  0.08031706  0.51347709     2.10000
Zr2714     Zr  0.56595677  0.12574519  0.58408745     1.78800
O2715       O  0.57719428  0.05241835  0.97120758    -0.93100
O2716       O  0.54659235  0.15659132  0.62080822    -0.40900
O2717       O  0.56633388  0.08116467  0.56429280    -0.77500
O2718       O  0.52300350  0.10617724  0.58129033    -0.96200
O2719       O  0.49133605  0.08678355  0.53107037    -0.89500
O2720       O  0.54024341  0.05895651  0.51089549    -0.92400
C2721       C  0.60083393  0.18028483  0.55512219     1.01400
C2722       C  0.60868392  0.13231920  0.47078587     1.14300
C2723       C  0.51205135  0.20137508  0.53421889     1.05100
O2724       O  0.46075410  0.15814852  0.57818900    -0.94500
O2725       O  0.47198489  0.11121314  0.59164339    -0.90300
O2726       O  0.48581738  0.06703815  0.59493677    -0.83400
C2727       C  0.47338625  0.08780748  0.60475897     1.11700
O2728       O  0.49315295  0.11203775  0.93725647    -0.96500
Zr2729     Zr  0.50899543  0.08474071  0.48121088     1.88900
O2730       O  0.50070041  0.02322746  0.53646267    -0.73200
O2731       O  0.45459539  0.13339269  0.51472331    -0.52400
O2732       O  0.45610842  0.09285128  0.97675631    -0.97100
O2733       O  0.52076365  0.06656273  0.93944036    -0.54300
O2734       O  0.49119003  0.03699009  0.48795206    -0.73700
C2735       C  0.49106081  0.01881788  0.50987742     0.98700
O2736       O  0.51743123  0.03273881  0.60703497    -0.62500
O2737       O  0.62791573  0.06021859  0.50865031    -0.57300
O2738       O  0.55846587  0.02823295  0.56936927    -0.94000
O2739       O  0.59680447  0.04968614  0.55545116    -0.92400
O2740       O  0.61059568  0.11491356  0.60326483    -0.92800
O2741       O  0.56740109  0.10653466  0.63572661    -0.91500
C2742       C  0.58390504  0.03116505  0.57042286     1.17500
H2743       H  0.60257334  0.13144212  0.53522967     0.33500
H2744       H  0.51847982  0.10613381  0.60260545     0.44300
H2745       H  0.54181146  0.04037905  0.50441082     0.37800
H2746       H  0.49939725  0.14336862  0.48466986     0.34300
H2747       H  0.56203510  0.16693430  0.62894916     0.26100
H2748       H  0.43909358  0.13014763  0.52832284     0.32000
H2749       H  0.44777822  0.08548772  0.99564842     0.38000
H2750       H  0.61603644  0.09882627  0.59162651     0.32400
H2751       H  0.63417401  0.06503460  0.48782839     0.31300
H2752       H  0.58903220  0.03189674  0.47927752     0.33000
H2753       H  0.50458051  0.05883488  0.92963123     0.31900
H2754       H  0.56094853  0.08758406  0.63364922     0.35900
H2755       H  0.51727787  0.01362946  0.60030284     0.28700
H2756       H  0.56803666  0.19952568  0.96949355     0.32900
H2757       H  0.50732065  0.12607070  0.93486176     0.35800
H2758       H  0.63967044  0.07072829  0.52240980     0.28400
H2759       H  0.53422328  0.03471553  0.61900808     0.41200
H2760       H  0.47103130  0.16562010  0.59555822     0.31300
H2761       H  0.53626237  0.17018648  0.60859652     0.38900
H2762       H  0.53072567  0.05040800  0.94710049     0.30800
H2763       H  0.45284204  0.15264793  0.50789787     0.30800
H2764       H  0.54209904  0.18714037  0.95429748     0.31100
Zr2765     Zr  0.89780497  0.17323494  0.80772650     2.17500
O2766       O  0.89921572  0.20375283  0.85084859    -0.51300
O2767       O  0.86997482  0.20058092  0.77256526    -0.74500
O2768       O  0.92620620  0.21177509  0.79520367    -0.81300
O2769       O  0.84049455  0.13547455  0.84419886    -0.83000
O2770       O  0.96203427  0.19768826  0.76799025    -0.78600
O2771       O  0.85619680  0.17830107  0.83436771    -0.90300
O2772       O  0.86502966  0.17740654  0.72858154    -0.76200
O2773       O  0.91144640  0.16503565  0.75709983    -0.85700
O2774       O  0.86704071  0.14084852  0.78815308    -0.85400
O2775       O  0.94266651  0.15609241  0.81407591    -0.72200
O2776       O  0.90197561  0.13409502  0.84180452    -0.84300
Zr2777     Zr  0.92755860  0.07614827  0.77528139     2.26400
Zr2778     Zr  0.95593847  0.14825167  0.76291542     2.06300
Zr2779     Zr  0.87016778  0.10223917  0.82188202     2.10000
Zr2780     Zr  0.88113609  0.13176490  0.73798011     1.78800
O2781       O  0.85680531  0.08999770  0.87373424    -0.93100
O2782       O  0.89601230  0.14150896  0.68610887    -0.40900
O2783       O  0.88251918  0.09207051  0.77080512    -0.77500
O2784       O  0.92577463  0.11526211  0.74183542    -0.96200
O2785       O  0.95986983  0.10762872  0.79405522    -0.89500
O2786       O  0.91459261  0.08487907  0.82610822    -0.92400
C2787       C  0.86125043  0.19822006  0.74504510     1.01400
C2788       C  0.83882899  0.16150882  0.84512572     1.14300
C2789       C  0.94805792  0.21625117  0.78065994     1.05100
O2790       O  0.96356263  0.16687345  0.71174667    -0.94500
O2791       O  0.98127993  0.11668250  0.73367341    -0.90300
O2792       O  0.96757397  0.07334233  0.74515112    -0.83400
C2793       C  0.98315257  0.09074864  0.73211714     1.11700
O2794       O  0.95605363  0.14599277  0.88622365    -0.96500
Zr2795     Zr  0.94680166  0.11483852  0.84491213     1.88900
O2796       O  0.95457814  0.04434328  0.80422727    -0.73200
O2797       O  0.00152081  0.15533987  0.78171371    -0.52400
O2798       O  0.99419586  0.12612693  0.84945633    -0.97100
O2799       O  0.93442172  0.09715621  0.89528544    -0.54300
O2800       O  0.96648341  0.06738381  0.84674560    -0.73700
C2801       C  0.96615033  0.04560235  0.83028975     0.98700
O2802       O  0.91663228  0.04904229  0.73146469    -0.62500
O2803       O  0.82778485  0.08763881  0.79990136    -0.57300
O2804       O  0.90356603  0.03719741  0.79635683    -0.94000
O2805       O  0.87059612  0.05264050  0.82721558    -0.92400
O2806       O  0.83263552  0.12848433  0.73204682    -0.92800
O2807       O  0.86815353  0.09655742  0.70232646    -0.91500
C2808       C  0.88516698  0.03358427  0.81646116     1.17500
H2809       H  0.84899842  0.14790517  0.78707272     0.33500
H2810       H  0.93139023  0.11047205  0.72160890     0.44300
H2811       H  0.91537671  0.06916959  0.83939901     0.37800
H2812       H  0.95398033  0.16991894  0.82281521     0.34300
H2813       H  0.87925531  0.14436616  0.67421211     0.26100
H2814       H  0.01200402  0.13979404  0.77424035     0.32000
H2815       H  0.00172007  0.11168546  0.86307816     0.38000
H2816       H  0.82842449  0.13962221  0.71353261     0.32400
H2817       H  0.81675553  0.08233435  0.81776207     0.31300
H2818       H  0.86918036  0.10033196  0.88695996     0.33000
H2819       H  0.95125283  0.08951364  0.90393485     0.31900
H2820       H  0.85728951  0.08338525  0.71442062     0.35900
H2821       H  0.89764498  0.04400671  0.73481401     0.28700
H2822       H  0.89164145  0.22116652  0.84295610     0.32900
H2823       H  0.93846898  0.15422369  0.89080516     0.35800
H2824       H  0.81943314  0.10461359  0.79185921     0.28400
H2825       H  0.91606791  0.06221964  0.71406227     0.41200
H2826       H  0.98296866  0.17114841  0.71122132     0.31300
H2827       H  0.90424025  0.15983356  0.68703442     0.38900
H2828       H  0.92300666  0.08106158  0.89146860     0.30800
H2829       H  0.00835829  0.17127570  0.76992770     0.30800
H2830       H  0.91846764  0.20763014  0.85441301     0.31100
Zr2831     Zr  0.88409748  0.33982853  0.78145629     2.17500
O2832       O  0.86872688  0.31919215  0.73419419    -0.51300
O2833       O  0.86036566  0.31001561  0.81960222    -0.74500
O2834       O  0.90974965  0.29951199  0.77231659    -0.81300
O2835       O  0.82239638  0.38289220  0.78186743    -0.83000
O2836       O  0.95395992  0.30700359  0.78196549    -0.78600
O2837       O  0.83764590  0.34097370  0.77019545    -0.90300
O2838       O  0.87041599  0.32326386  0.86765177    -0.76200
O2839       O  0.91836913  0.33451697  0.81873320    -0.85700
O2840       O  0.86742477  0.36451474  0.82281152    -0.85400
O2841       O  0.92258531  0.36143844  0.75783380    -0.72200
O2842       O  0.87794184  0.38557936  0.76096887    -0.84300
Zr2843     Zr  0.93387693  0.42565625  0.82257033     2.26400
Zr2844     Zr  0.95701429  0.35560382  0.79598785     2.06300
Zr2845     Zr  0.86017737  0.40941868  0.80289242     2.10000
Zr2846     Zr  0.90212754  0.35932618  0.86054412     1.78800
O2847       O  0.84483161  0.44589920  0.76854783    -0.93100
O2848       O  0.92840471  0.32229881  0.88332441    -0.40900
O2849       O  0.89493898  0.40316830  0.83969784    -0.77500
O2850       O  0.94187220  0.37931587  0.84003901    -0.96200
O2851       O  0.95169446  0.40276971  0.78019560    -0.89500
O2852       O  0.89972299  0.43260428  0.78469209    -0.92400
C2853       C  0.85737624  0.30863393  0.84897530     1.01400
C2854       C  0.81902313  0.35851561  0.77233824     1.14300
C2855       C  0.93414133  0.29165461  0.77406555     1.05100
O2856       O  0.98952719  0.32671555  0.82270118    -0.94500
O2857       O  0.99446067  0.37726372  0.82245386    -0.90300
O2858       O  0.97920787  0.41780169  0.83954218    -0.83400
C2859       C  0.99706440  0.39938283  0.83732594     1.11700
O2860       O  0.90886543  0.39437253  0.69090999    -0.96500
Zr2861     Zr  0.91768158  0.40944446  0.74258240     1.88900
O2862       O  0.94390007  0.46622434  0.79277540    -0.73200
O2863       O  0.98474261  0.35750117  0.75043546    -0.52400
O2864       O  0.95878814  0.40470591  0.71361601    -0.97100
O2865       O  0.88482749  0.43491947  0.71205272    -0.54300
O2866       O  0.93699051  0.45702403  0.74312704    -0.73700
C2867       C  0.94436012  0.47332637  0.76457962     0.98700
O2868       O  0.95523845  0.46144313  0.85175234    -0.62500
O2869       O  0.81919951  0.41783478  0.83112729    -0.57300
O2870       O  0.90338776  0.44070088  0.86174354    -0.94000
O2871       O  0.85984279  0.43957979  0.84612026    -0.92400
O2872       O  0.87112368  0.37527519  0.89875377    -0.92800
O2873       O  0.92135271  0.37671345  0.90756233    -0.91500
C2874       C  0.87816812  0.44450399  0.86590448     1.17500
H2875       H  0.85027209  0.35816575  0.83013373     0.33500
H2876       H  0.95455465  0.37782718  0.85669819     0.44300
H2877       H  0.89595061  0.45158762  0.78044045     0.37800
H2878       H  0.92722266  0.35124581  0.74004796     0.34300
H2879       H  0.94635135  0.33027872  0.88708159     0.26100
H2880       H  0.00103107  0.34705825  0.75618299     0.32000
H2881       H  0.96613017  0.42337697  0.71145056     0.38000
H2882       H  0.85699830  0.38492605  0.88680274     0.32400
H2883       H  0.80498610  0.42107048  0.81559453     0.31300
H2884       H  0.82517316  0.44330552  0.76708169     0.33000
H2885       H  0.88252172  0.45227556  0.72275452     0.31900
H2886       H  0.93174611  0.39302399  0.90116281     0.35900
H2887       H  0.94221544  0.47661238  0.85180403     0.28700
H2888       H  0.86168881  0.30100175  0.74024050     0.32900
H2889       H  0.90075194  0.37607329  0.69366433     0.35800
H2890       H  0.81460251  0.40007263  0.84087411     0.28400
H2891       H  0.95572323  0.45426813  0.87300860     0.41200
H2892       H  0.97944219  0.31862300  0.84005785     0.31300
H2893       H  0.92073801  0.31939332  0.90391956     0.38900
H2894       H  0.86767289  0.42508789  0.71520626     0.30800
H2895       H  0.97535443  0.34593509  0.73552050     0.30800
H2896       H  0.88511324  0.31547840  0.72238911     0.31100
Zr2897     Zr  0.68950194  0.23421369  0.47405769     2.17500
O2898       O  0.68104804  0.19793061  0.51180519    -0.51300
O2899       O  0.65508919  0.26105630  0.49766703    -0.74500
O2900       O  0.70938709  0.24540983  0.52239896    -0.81300
O2901       O  0.63966352  0.20211023  0.91058422    -0.83000
O2902       O  0.75228632  0.26094351  0.51862534    -0.78600
O2903       O  0.65284140  0.19734644  0.96035680    -0.90300
O2904       O  0.66049666  0.30251424  0.97911582    -0.76200
O2905       O  0.70952126  0.27440000  0.97168423    -0.85700
O2906       O  0.66314836  0.25917919  0.93340467    -0.85400
O2907       O  0.73069529  0.22167113  0.96614854    -0.72200
O2908       O  0.68880681  0.20847236  0.92763336    -0.84300
Zr2909     Zr  0.73934324  0.26228944  0.87777149     2.26400
Zr2910     Zr  0.75566160  0.26388647  0.96134243     2.06300
Zr2911     Zr  0.66953438  0.23510535  0.88669627     2.10000
Zr2912     Zr  0.68816484  0.30034641  0.93262899     1.78800
O2913       O  0.65075534  0.20140150  0.85246522    -0.93100
O2914       O  0.70352816  0.34070486  0.95899047    -0.40900
O2915       O  0.69400473  0.27677206  0.88538759    -0.77500
O2916       O  0.73460297  0.29033282  0.92155746    -0.96200
O2917       O  0.75922241  0.23629927  0.91791552    -0.89500
O2918       O  0.71475359  0.22095028  0.87932102    -0.92400
C2919       C  0.65183883  0.28685522  0.49645125     1.01400
C2920       C  0.63883101  0.19039692  0.93700450     1.14300
C2921       C  0.73129215  0.25422654  0.53401844     1.05100
O2922       O  0.76785787  0.30897843  0.97890286    -0.94500
O2923       O  0.79544879  0.27827309  0.93012684    -0.90300
O2924       O  0.78389302  0.27915333  0.87990413    -0.83400
C2925       C  0.80081063  0.28232359  0.90142757     1.11700
O2926       O  0.71893848  0.15531902  0.94964135    -0.96500
Zr2927     Zr  0.73378796  0.19553783  0.92102305     1.88900
O2928       O  0.77182596  0.23098454  0.85697255    -0.73200
O2929       O  0.79771674  0.23935891  0.48836353    -0.52400
O2930       O  0.76841526  0.17387750  0.95223616    -0.97100
O2931       O  0.72197758  0.15802185  0.88796125    -0.54300
O2932       O  0.77123531  0.19327252  0.88768247    -0.73700
C2933       C  0.78093539  0.20772366  0.86584577     0.98700
O2934       O  0.74504846  0.30141853  0.84316416    -0.62500
O2935       O  0.63091941  0.26452974  0.87709786    -0.57300
O2936       O  0.72239901  0.25393928  0.82838551    -0.94000
O2937       O  0.67842437  0.24246101  0.83177047    -0.92400
O2938       O  0.64494705  0.31523579  0.91229609    -0.92800
O2939       O  0.69406924  0.34068447  0.90011260    -0.91500
C2940       C  0.69987444  0.24779856  0.81656982     1.17500
H2941       H  0.64434310  0.26205873  0.93738452     0.33500
H2942       H  0.74435302  0.30714775  0.91831430     0.44300
H2943       H  0.71653429  0.21083534  0.86080815     0.37800
H2944       H  0.74181850  0.21128585  0.48549235     0.34300
H2945       H  0.70547363  0.33475135  0.98061603     0.26100
H2946       H  0.80814679  0.25360419  0.49885038     0.32000
H2947       H  0.78461385  0.18513656  0.94857704     0.38000
H2948       H  0.64015717  0.33107942  0.92469425     0.32400
H2949       H  0.63643214  0.27666217  0.85991108     0.31300
H2950       H  0.63677661  0.21109941  0.84033217     0.33000
H2951       H  0.73014853  0.16258627  0.86797144     0.31900
H2952       H  0.69071826  0.33431813  0.87914666     0.35900
H2953       H  0.72658351  0.30724493  0.83778037     0.28700
H2954       H  0.67209343  0.20701086  0.52887179     0.32900
H2955       H  0.70582344  0.16222729  0.96442444     0.35800
H2956       H  0.61707874  0.25250762  0.86825266     0.28400
H2957       H  0.75202115  0.31617384  0.85606059     0.41200
H2958       H  0.76778924  0.31113243  0.49951886     0.31300
H2959       H  0.72216987  0.34367067  0.95200662     0.38900
H2960       H  0.70243109  0.15991866  0.88440861     0.30800
H2961       H  0.78958322  0.22828451  0.50503212     0.30800
H2962       H  0.69888295  0.19266286  0.52003777     0.31100
Zr2963     Zr  0.68541586  0.26336104  0.62734786     2.17500
O2964       O  0.67118208  0.30263120  0.59654063    -0.51300
O2965       O  0.66035297  0.22957818  0.60004326    -0.74500
O2966       O  0.70716592  0.26007651  0.57847861    -0.81300
O2967       O  0.63169309  0.27050833  0.68803517    -0.83000
O2968       O  0.75230158  0.25399376  0.58334972    -0.78600
O2969       O  0.63889097  0.27409042  0.63683327    -0.90300
O2970       O  0.67450944  0.18986484  0.62218364    -0.76200
O2971       O  0.71841617  0.22848304  0.62742587    -0.85700
O2972       O  0.67196750  0.23176836  0.66626599    -0.85400
O2973       O  0.72765834  0.28546482  0.63613845    -0.72200
O2974       O  0.68364084  0.28823327  0.67357823    -0.84300
Zr2975     Zr  0.74533703  0.24436697  0.72294837     2.26400
Zr2976     Zr  0.76059531  0.24966854  0.63848217     2.06300
Zr2977     Zr  0.67192268  0.25585955  0.71302118     2.10000
Zr2978     Zr  0.70466732  0.19713801  0.66585364     1.78800
O2979       O  0.64816755  0.29066368  0.74099019    -0.93100
O2980       O  0.72734581  0.16355591  0.63516758    -0.40900
O2981       O  0.70448204  0.22032143  0.71377338    -0.77500
O2982       O  0.74695245  0.21794550  0.67758743    -0.96200
O2983       O  0.75889175  0.27544321  0.68386008    -0.89500
O2984       O  0.71280967  0.27934957  0.72263851    -0.92400
C2985       C  0.66049450  0.20360002  0.60241115     1.01400
C2986       C  0.62423454  0.27587710  0.66065452     1.14300
C2987       C  0.73066666  0.25669996  0.56738982     1.05100
O2988       O  0.78366096  0.21364841  0.61185695    -0.94500
O2989       O  0.80099414  0.23428041  0.66695226    -0.90300
O2990       O  0.79210845  0.23530700  0.71776229    -0.83400
C2991       C  0.80770525  0.23116947  0.69533730     1.11700
O2992       O  0.70914570  0.34464462  0.64664249    -0.96500
Zr2993     Zr  0.72561885  0.31004768  0.68268926     1.88900
O2994       O  0.76771929  0.28219436  0.74704745    -0.73200
O2995       O  0.79240952  0.28511603  0.62339988    -0.52400
O2996       O  0.76391675  0.33743872  0.66673408    -0.97100
O2997       O  0.69775066  0.34390164  0.70685757    -0.54300
O2998       O  0.75314082  0.32224324  0.72600317    -0.73700
C2999       C  0.76745655  0.30828096  0.74499154     0.98700
O3000       O  0.76159018  0.20648305  0.75478122    -0.62500
O3001       O  0.64132282  0.21922449  0.72802783    -0.57300
O3002       O  0.72381569  0.24389508  0.77194426    -0.94000
O3003       O  0.67894440  0.25085986  0.76769996    -0.92400
O3004       O  0.66817762  0.17217466  0.69008637    -0.92800
O3005       O  0.72221538  0.15658757  0.69199422    -0.91500
C3006       C  0.70042303  0.24698579  0.78331722     1.17500
H3007       H  0.65434383  0.22437278  0.66231534     0.33500
H3008       H  0.76009120  0.20363336  0.68009482     0.44300
H3009       H  0.71213158  0.28872467  0.74175298     0.37800
H3010       H  0.73162001  0.29790584  0.61940520     0.34300
H3011       H  0.71397196  0.14884958  0.63243901     0.26100
H3012       H  0.78327767  0.29554159  0.60677999     0.32000
H3013       H  0.75861440  0.35643651  0.67066963     0.38000
H3014       H  0.66480087  0.15667460  0.67651989     0.32400
H3015       H  0.63687018  0.22262089  0.74958161     0.31300
H3016       H  0.63057189  0.28247247  0.74620463     0.33000
H3017       H  0.71029339  0.35877894  0.71205413     0.31900
H3018       H  0.73129519  0.16345702  0.71045785     0.35900
H3019       H  0.74532770  0.19802604  0.76373472     0.28700
H3020       H  0.66461522  0.29487744  0.57722376     0.32900
H3021       H  0.68974911  0.34069237  0.64443100     0.35800
H3022       H  0.62446285  0.22308869  0.71669950     0.28400
H3023       H  0.76785049  0.19285372  0.74014450     0.41200
H3024       H  0.77881739  0.19670148  0.62319382     0.31300
H3025       H  0.72889340  0.17227530  0.61467801     0.38900
H3026       H  0.69271182  0.33555318  0.72676575     0.30800
H3027       H  0.79282241  0.29767721  0.64073302     0.30800
H3028       H  0.68798632  0.31221491  0.59093835     0.31100
Zr3029     Zr  0.43451293  0.02608556  0.70926948     2.17500
O3030       O  0.46105846  0.00738540  0.66822587    -0.51300
O3031       O  0.46121670  0.99565862  0.73994029    -0.74500
O3032       O  0.47402959  0.05485865  0.70571880    -0.81300
O3033       O  0.37141753  0.98255189  0.69671424    -0.83000
O3034       O  0.46433487  0.09843010  0.69751328    -0.78600
O3035       O  0.41253153  0.99299212  0.67734818    -0.90300
O3036       O  0.47041524  0.02239142  0.77918281    -0.76200
O3037       O  0.44646220  0.05625011  0.74917257    -0.85700
O3038       O  0.41087889  0.00777980  0.75222942    -0.85400
O3039       O  0.41989314  0.07082020  0.69320773    -0.72200
O3040       O  0.38825565  0.02855137  0.69672851    -0.84300
Zr3041     Zr  0.35923299  0.08586527  0.76007697     2.26400
Zr3042     Zr  0.43008999  0.10055023  0.73540009     2.06300
Zr3043     Zr  0.36409377  0.01195004  0.73974854     2.10000
Zr3044     Zr  0.42331460  0.03819220  0.79160836     1.78800
O3045       O  0.33524424  0.97214489  0.73432971    -0.93100
O3046       O  0.45096745  0.06154654  0.82897719    -0.40900
O3047       O  0.37532514  0.04219818  0.77967898    -0.77500
O3048       O  0.40550441  0.08321224  0.77829858    -0.96200
O3049       O  0.38463051  0.10175999  0.71782787    -0.89500
O3050       O  0.34947809  0.05561916  0.71998365    -0.92400
C3051       C  0.47792036  0.00495300  0.75914067     1.01400
C3052       C  0.38996143  0.98023901  0.67686037     1.14300
C3053       C  0.47479425  0.07628068  0.68904712     1.05100
O3054       O  0.45865321  0.10756213  0.77986203    -0.94500
O3055       O  0.40461624  0.14233068  0.73883182    -0.90300
O3056       O  0.37253474  0.13145913  0.77327651    -0.83400
C3057       C  0.38612152  0.14869959  0.75738059     1.11700
O3058       O  0.39021519  0.05218722  0.63029307    -0.96500
Zr3059     Zr  0.37450355  0.07141182  0.67774965     1.88900
O3060       O  0.33582101  0.11946813  0.72576049    -0.73200
O3061       O  0.45422485  0.14339581  0.72742233    -0.52400
O3062       O  0.38716298  0.10616477  0.63999836    -0.97100
O3063       O  0.33637464  0.04977837  0.65259315    -0.54300
O3064       O  0.34288132  0.10760396  0.67672948    -0.73700
C3065       C  0.33329820  0.12338706  0.69656195     0.98700
O3066       O  0.33696890  0.09531654  0.80800702    -0.62500
O3067       O  0.36977558  0.98399938  0.78591591    -0.57300
O3068       O  0.31416702  0.06606657  0.76439895    -0.94000
O3069       O  0.31720648  0.02233373  0.74891623    -0.92400
O3070       O  0.42151200  0.99331487  0.81633427    -0.92800
O3071       O  0.40818019  0.04039669  0.84426230    -0.91500
C3072       C  0.30370685  0.04301052  0.75734465     1.17500
H3073       H  0.41543721  0.98903799  0.75680526     0.33500
H3074       H  0.40774294  0.09505245  0.79542700     0.44300
H3075       H  0.33120727  0.05655735  0.71275084     0.37800
H3076       H  0.42766349  0.07602149  0.67414675     0.34300
H3077       H  0.46827388  0.06495762  0.81865675     0.26100
H3078       H  0.47357471  0.13913719  0.72935698     0.32000
H3079       H  0.39520499  0.12094450  0.65207219     0.38000
H3080       H  0.43839054  0.98432086  0.81045594     0.32400
H3081       H  0.35145396  0.98174005  0.79414297     0.31300
H3082       H  0.32169081  0.97735938  0.71864370     0.33000
H3083       H  0.32089039  0.06188453  0.65600180     0.31900
H3084       H  0.39023233  0.04892735  0.84283757     0.35900
H3085       H  0.33564428  0.07736875  0.81863521     0.28700
H3086       H  0.47998046  0.00900198  0.67496399     0.32900
H3087       H  0.40846155  0.04531442  0.63502376     0.35800
H3088       H  0.37463710  0.96573264  0.77864703     0.28400
H3089       H  0.35035836  0.10541942  0.82013711     0.41200
H3090       H  0.47648050  0.10078416  0.77380958     0.31300
H3091       H  0.44290411  0.07979798  0.83101222     0.38900
H3092       H  0.33250189  0.03315075  0.66497660     0.30800
H3093       H  0.45143142  0.14851389  0.70565079     0.30800
H3094       H  0.45917289  0.02055520  0.65093712     0.31100
Zr3095     Zr  0.09345002  0.03610164  0.74114492     2.17500
O3096       O  0.05814380  0.03453945  0.77948567    -0.51300
O3097       O  0.06155414  0.00656135  0.71490394    -0.74500
O3098       O  0.05871052  0.06852698  0.72845624    -0.81300
O3099       O  0.14380517  0.99570872  0.79372944    -0.83000
O3100       O  0.07069871  0.09790519  0.69002177    -0.78600
O3101       O  0.10256094  0.01544489  0.79222511    -0.90300
O3102       O  0.07624064  0.00633098  0.66621148    -0.76200
O3103       O  0.09848108  0.04936468  0.68893834    -0.85700
O3104       O  0.12190098  0.00202339  0.72079809    -0.85400
O3105       O  0.11048124  0.08202958  0.73936791    -0.72200
O3106       O  0.13522121  0.03896723  0.76665486    -0.84300
Zr3107     Zr  0.18824605  0.06448755  0.69585076     2.26400
Zr3108     Zr  0.11879613  0.09366340  0.68660407     2.06300
Zr3109     Zr  0.16505698  0.00639489  0.74581934     2.10000
Zr3110     Zr  0.12584925  0.01558934  0.66844000     1.78800
O3111       O  0.18586219  0.97510428  0.78296602    -0.93100
O3112       O  0.11345533  0.02991015  0.61666437    -0.40900
O3113       O  0.16966309  0.01902697  0.69348864    -0.77500
O3114       O  0.14746529  0.05991605  0.66607404    -0.96200
O3115       O  0.15882351  0.09747990  0.71598561    -0.89500
O3116       O  0.18182015  0.05172034  0.74784748    -0.92400
C3117       C  0.05737952  0.00313441  0.68623335     1.01400
C3118       C  0.12142191  0.00163739  0.80587112     1.14300
C3119       C  0.05355862  0.08695459  0.70809244     1.05100
O3120       O  0.09957755  0.10303210  0.63629359    -0.94500
O3121       O  0.15101126  0.12027952  0.65555373    -0.90300
O3122       O  0.19233047  0.10085554  0.65828101    -0.83400
C3123       C  0.17594626  0.11895443  0.64807255     1.11700
O3124       O  0.11965891  0.09456876  0.80779579    -0.96500
Zr3125     Zr  0.15128922  0.08391776  0.76768036     1.88900
O3126       O  0.21527501  0.09684400  0.72567401    -0.73200
O3127       O  0.11019113  0.13967091  0.70353248    -0.52400
O3128       O  0.14573252  0.13305286  0.76965236    -0.97100
O3129       O  0.16594297  0.06860211  0.81845607    -0.54300
O3130       O  0.19532062  0.10197535  0.77161677    -0.73700
C3131       C  0.21454379  0.10599251  0.75304842     0.98700
O3132       O  0.21826161  0.05370216  0.65408431    -0.62500
O3133       O  0.16242597  0.96287361  0.72060557    -0.57300
O3134       O  0.22835347  0.04241541  0.71429926    -0.94000
O3135       O  0.21462038  0.00802842  0.74601106    -0.92400
O3136       O  0.12561505  0.96602844  0.66826343    -0.92800
O3137       O  0.15232122  0.99644423  0.62770408    -0.91500
C3138       C  0.23289324  0.02310796  0.73366640     1.17500
H3139       H  0.11415047  0.98410039  0.72359676     0.33500
H3140       H  0.15120624  0.06448983  0.64497023     0.44300
H3141       H  0.19786389  0.05247525  0.76020325     0.37800
H3142       H  0.09800953  0.09466514  0.74805276     0.34300
H3143       H  0.09715300  0.01926824  0.61179423     0.26100
H3144       H  0.12820061  0.14774542  0.70654687     0.32000
H3145       H  0.15048527  0.13775121  0.79086888     0.38000
H3146       H  0.10666519  0.96093799  0.66459393     0.32400
H3147       H  0.18129978  0.95801521  0.71655285     0.31300
H3148       H  0.19682066  0.96243912  0.77102770     0.33000
H3149       H  0.18559675  0.07142986  0.81892839     0.31900
H3150       H  0.17113753  0.99779066  0.63491015     0.35900
H3151       H  0.22257026  0.03415300  0.65699137     0.28700
H3152       H  0.04128512  0.03099562  0.76815343     0.32900
H3153       H  0.10824920  0.07811234  0.80987152     0.35800
H3154       H  0.15659701  0.94976584  0.73673185     0.28400
H3155       H  0.20675586  0.05426637  0.63556715     0.41200
H3156       H  0.09701900  0.12301175  0.63542810     0.31300
H3157       H  0.10698330  0.04881305  0.61859465     0.38900
H3158       H  0.16377316  0.04856871  0.81844614     0.30800
H3159       H  0.10286419  0.14936644  0.68528074     0.30800
H3160       H  0.05643210  0.05347438  0.78651205     0.31100
Zr3161     Zr  0.42460268  0.48000203  0.95570563     2.17500
O3162       O  0.45893030  0.48604730  0.49614134    -0.51300
O3163       O  0.45533023  0.50456336  0.92450387    -0.74500
O3164       O  0.46252620  0.44948712  0.95114563    -0.81300
O3165       O  0.38489595  0.54181140  0.94864855    -0.83000
O3166       O  0.45008614  0.40897838  0.93112986    -0.78600
O3167       O  0.42074161  0.52636898  0.97338936    -0.90300
O3168       O  0.45017916  0.48256063  0.88052471    -0.76200
O3169       O  0.42401181  0.45010399  0.91386077    -0.85700
O3170       O  0.39757999  0.50274028  0.91796919    -0.85400
O3171       O  0.40792220  0.43701056  0.97432049    -0.72200
O3172       O  0.38065618  0.48526377  0.97633935    -0.84300
Zr3173     Zr  0.33313865  0.43681621  0.92162402     2.26400
Zr3174     Zr  0.40218409  0.40897034  0.93022077     2.06300
Zr3175     Zr  0.35255301  0.50705869  0.93771280     2.10000
Zr3176     Zr  0.39930386  0.47364781  0.87674124     1.78800
O3177       O  0.33256069  0.54521843  0.96369863    -0.93100
O3178       O  0.41490910  0.44199964  0.83884349    -0.40900
O3179       O  0.35319066  0.47655632  0.89673480    -0.77500
O3180       O  0.37517812  0.43350431  0.89393210    -0.96200
O3181       O  0.36132764  0.41367534  0.95698259    -0.89500
O3182       O  0.33668700  0.46633500  0.96317662    -0.92400
C3183       C  0.46525749  0.49506958  0.90038750     1.01400
C3184       C  0.39810640  0.53859351  0.97314775     1.14300
C3185       C  0.46749593  0.42540635  0.94163748     1.05100
O3186       O  0.42447791  0.37319022  0.90258873    -0.94500
O3187       O  0.37594464  0.37746683  0.89937703    -0.90300
O3188       O  0.33447541  0.39591934  0.89407972    -0.83400
C3189       C  0.35183630  0.37767224  0.88886684     1.11700
O3190       O  0.39322636  0.46324635  0.54145986    -0.96500
Zr3191     Zr  0.36590033  0.44352222  0.99874898     1.88900
O3192       O  0.31377429  0.40366536  0.96021526    -0.73200
O3193       O  0.40413531  0.37577407  0.97213193    -0.52400
O3194       O  0.38620589  0.40626525  0.02838491    -0.97100
O3195       O  0.33918995  0.46300899  0.53169407    -0.54300
O3196       O  0.33223464  0.40953373  0.00708045    -0.73700
C3197       C  0.31619057  0.39743255  0.98911714     0.98700
O3198       O  0.29666867  0.43500690  0.88423926    -0.62500
O3199       O  0.34299711  0.52894355  0.88853243    -0.57300
O3200       O  0.29210630  0.46290497  0.92670417    -0.94000
O3201       O  0.30310150  0.50644351  0.93774578    -0.92400
O3202       O  0.40106491  0.51945763  0.85439375    -0.92800
O3203       O  0.37875602  0.47653361  0.82631645    -0.91500
C3204       C  0.28582056  0.48734987  0.93355780     1.17500
H3205       H  0.40588754  0.51952364  0.91106746     0.33500
H3206       H  0.37250433  0.42359433  0.87542872     0.44300
H3207       H  0.31985731  0.46892339  0.97337168     0.37800
H3208       H  0.42068735  0.42880267  0.98839389     0.34300
H3209       H  0.43422335  0.44617317  0.83655753     0.26100
H3210       H  0.39580013  0.35920516  0.96373591     0.32000
H3211       H  0.38539123  0.39234097  0.52533253     0.38000
H3212       H  0.41800915  0.51996029  0.84276127     0.32400
H3213       H  0.32476237  0.53657042  0.89059412     0.31300
H3214       H  0.32999967  0.55934193  0.94747494     0.33000
H3215       H  0.32129661  0.45773098  0.52384706     0.31900
H3216       H  0.36082976  0.46816582  0.82913509     0.35900
H3217       H  0.30557343  0.43495902  0.86411946     0.28700
H3218       H  0.47748743  0.48749366  0.48851675     0.32900
H3219       H  0.41258392  0.45959233  0.53884798     0.35800
H3220       H  0.35493478  0.54507766  0.88798702     0.28400
H3221       H  0.28842267  0.41673026  0.88659858     0.41200
H3222       H  0.42992884  0.38195010  0.88301979     0.31300
H3223       H  0.41453444  0.42393583  0.84928112     0.38900
H3224       H  0.34018520  0.48286519  0.52776194     0.30800
H3225       H  0.42341569  0.37125368  0.97410031     0.30800
H3226       H  0.45838871  0.46847336  0.50760909     0.31100
Zr3227     Zr  0.07694331  0.46342097  0.92296081     2.17500
O3228       O  0.04200382  0.48470793  0.89148551    -0.51300
O3229       O  0.04190036  0.48139054  0.95600559    -0.74500
O3230       O  0.04651788  0.42983289  0.90274484    -0.81300
O3231       O  0.12927226  0.51674125  0.89509957    -0.83000
O3232       O  0.05440315  0.38828775  0.92462582    -0.78600
O3233       O  0.08867582  0.49780906  0.88480706    -0.90300
O3234       O  0.05733783  0.47992292  0.50627733    -0.76200
O3235       O  0.07428077  0.43677231  0.96858678    -0.85700
O3236       O  0.10247305  0.48922385  0.95851751    -0.85400
O3237       O  0.09643686  0.42025839  0.90920326    -0.72200
O3238       O  0.12148706  0.46769698  0.90343100    -0.84300
Zr3239     Zr  0.16444005  0.42234036  0.97112187     2.26400
Zr3240     Zr  0.09459952  0.39422038  0.95641977     2.06300
Zr3241     Zr  0.14797049  0.49194672  0.93931866     2.10000
Zr3242     Zr  0.10541569  0.46583040  0.50665465     1.78800
O3243       O  0.17162528  0.53085681  0.91667395    -0.93100
O3244       O  0.08445285  0.44147771  0.54914434    -0.40900
O3245       O  0.14574394  0.46534642  0.98558739    -0.77500
O3246       O  0.12616564  0.42189972  0.49850734    -0.96200
O3247       O  0.13815142  0.39868484  0.93500487    -0.89500
O3248       O  0.16694355  0.44908354  0.92541709    -0.92400
C3249       C  0.03589984  0.48290507  0.98441840     1.01400
C3250       C  0.10796652  0.51437551  0.87871179     1.14300
C3251       C  0.04188415  0.40425969  0.90584600     1.05100
O3252       O  0.07136873  0.38757381  0.50578149    -0.94500
O3253       O  0.13013473  0.36029426  0.48370916    -0.90300
O3254       O  0.17090090  0.37886362  0.49409387    -0.83400
C3255       C  0.15472952  0.35876809  0.49273722     1.11700
O3256       O  0.12168274  0.44227445  0.84135584    -0.96500
Zr3257     Zr  0.14050195  0.42564471  0.88964133     1.88900
O3258       O  0.19139204  0.39052532  0.94104239    -0.73200
O3259       O  0.08443095  0.34639738  0.94730620    -0.52400
O3260       O  0.12893392  0.39118502  0.85260435    -0.97100
O3261       O  0.17769325  0.44614232  0.86136361    -0.54300
O3262       O  0.17187313  0.38866887  0.89425537    -0.73700
C3263       C  0.18872384  0.38013041  0.91441012     0.98700
O3264       O  0.19186675  0.42237915  0.52592381    -0.62500
O3265       O  0.14390256  0.52572089  0.97885019    -0.57300
O3266       O  0.20580132  0.44807469  0.96968385    -0.94000
O3267       O  0.19745409  0.48873790  0.94579309    -0.92400
O3268       O  0.10684012  0.51223006  0.52518879    -0.92800
O3269       O  0.12902904  0.46836133  0.55531618    -0.91500
C3270       C  0.21350866  0.47075566  0.95763435     1.17500
H3271       H  0.09476150  0.50704875  0.96098437     0.33500
H3272       H  0.12718529  0.41184178  0.51778453     0.44300
H3273       H  0.18473098  0.44992539  0.91700489     0.37800
H3274       H  0.08832621  0.41124688  0.89215390     0.34300
H3275       H  0.07516054  0.45576074  0.56061679     0.26100
H3276       H  0.06603164  0.34329346  0.95500344     0.32000
H3277       H  0.14417389  0.39118719  0.83822603     0.38000
H3278       H  0.09220684  0.51299733  0.54029846     0.32400
H3279       H  0.16170388  0.52589447  0.98900151     0.31300
H3280       H  0.18276763  0.53843963  0.93324990     0.33000
H3281       H  0.17163401  0.46485575  0.85611144     0.31900
H3282       H  0.14420774  0.45556579  0.55352405     0.35900
H3283       H  0.19430028  0.44160820  0.53163599     0.28700
H3284       H  0.02469938  0.47830836  0.89998565     0.32900
H3285       H  0.10408006  0.45001486  0.84675539     0.35800
H3286       H  0.14278932  0.54344509  0.96773024     0.28400
H3287       H  0.17773870  0.41540124  0.53982111     0.41200
H3288       H  0.07967633  0.37198210  0.51694307     0.31300
H3289       H  0.06975623  0.43095958  0.53970313     0.38900
H3290       H  0.17783445  0.43667806  0.84165566     0.30800
H3291       H  0.08299045  0.34474350  0.92487646     0.30800
H3292       H  0.04310821  0.47594273  0.87139160     0.31100
Zr3293     Zr  0.27013654  0.21998971  0.77602827     2.17500
O3294       O  0.24007376  0.19821835  0.73960394    -0.51300
O3295       O  0.31134869  0.20094085  0.75683787    -0.74500
O3296       O  0.27531097  0.24121072  0.72678316    -0.81300
O3297       O  0.24459864  0.16611082  0.82991958    -0.83000
O3298       O  0.28519113  0.28615502  0.72934558    -0.78600
O3299       O  0.25801838  0.17312505  0.78083354    -0.90300
O3300       O  0.34499396  0.21210522  0.78934616    -0.76200
O3301       O  0.30686212  0.24953047  0.78423946    -0.85700
O3302       O  0.28962263  0.20420177  0.82285233    -0.85400
O3303       O  0.24964825  0.26409353  0.77626564    -0.72200
O3304       O  0.23481518  0.22223208  0.81278623    -0.84300
Zr3305     Zr  0.27275749  0.28132074  0.87036855     2.26400
Zr3306     Zr  0.28710906  0.29370144  0.78502500     2.06300
Zr3307     Zr  0.25478232  0.20670594  0.86000704     2.10000
Zr3308     Zr  0.32571224  0.23459547  0.83179558     1.78800
O3309       O  0.21098992  0.19061604  0.87704981    -0.93100
O3310       O  0.36666822  0.25998002  0.82069195    -0.40900
O3311       O  0.29189008  0.23663253  0.87028086    -0.77500
O3312       O  0.30756551  0.27892850  0.83286174    -0.96200
O3313       O  0.25322222  0.29714142  0.82346512    -0.89500
O3314       O  0.23603944  0.25160421  0.86192881    -0.92400
C3315       C  0.33598555  0.20083709  0.76537500     1.01400
C3316       C  0.24774356  0.15849630  0.80216552     1.14300
C3317       C  0.28021894  0.26443729  0.71429486     1.05100
O3318       O  0.32817671  0.30915812  0.76021829    -0.94500
O3319       O  0.30544589  0.33180218  0.81236858    -0.90300
O3320       O  0.29414599  0.32487900  0.86232842    -0.83400
C3321       C  0.30566234  0.33809886  0.84056722     1.11700
O3322       O  0.18295269  0.24749761  0.78175887    -0.96500
Zr3323     Zr  0.21650615  0.26731951  0.81542593     1.88900
O3324       O  0.23742518  0.31290004  0.88240487    -0.73200
O3325       O  0.26261102  0.33351444  0.76600805    -0.52400
O3326       O  0.19834502  0.30105396  0.77922283    -0.97100
O3327       O  0.17708076  0.24995884  0.84216472    -0.54300
O3328       O  0.20403916  0.30481625  0.84824057    -0.73700
C3329       C  0.21437724  0.31796058  0.87053366     0.98700
O3330       O  0.30058065  0.29425320  0.91386882    -0.62500
O3331       O  0.27951358  0.17020998  0.88604787    -0.57300
O3332       O  0.25931568  0.25954587  0.91837933    -0.94000
O3333       O  0.25107175  0.21418917  0.91531459    -0.93200
O3334       O  0.34373686  0.19211355  0.85290527    -0.92800
O3335       O  0.35521628  0.24489467  0.87457251    -0.91500
C3336       C  0.25336023  0.23618786  0.93055536     1.17500
H3337       H  0.29623067  0.18583434  0.82125927     0.33500
H3338       H  0.32282834  0.29000514  0.83816639     0.44300
H3339       H  0.22303699  0.25269074  0.87806437     0.37800
H3340       H  0.24104131  0.26840106  0.75695998     0.34300
H3341       H  0.38035658  0.24592340  0.81684471     0.26100
H3342       H  0.27591162  0.34401900  0.75386321     0.32000
H3343       H  0.20800060  0.31813792  0.78375567     0.38000
H3344       H  0.36163943  0.19042006  0.84350678     0.32400
H3345       H  0.29369201  0.17961121  0.89777060     0.31300
H3346       H  0.21453285  0.17274166  0.88712565     0.33000
H3347       H  0.17603700  0.26035672  0.86120063     0.31900
H3348       H  0.34879653  0.26260760  0.88195711     0.35900
H3349       H  0.30830773  0.27690836  0.92172580     0.28700
H3350       H  0.25077362  0.19536233  0.72100392     0.32900
H3351       H  0.16673564  0.25892342  0.78358578     0.35800
H3352       H  0.26709005  0.16289040  0.90174379     0.28400
H3353       H  0.31633192  0.30426933  0.90579678     0.41200
H3354       H  0.33842988  0.29233004  0.75658385     0.31300
H3355       H  0.36334156  0.26875530  0.80048264     0.38900
H3356       H  0.18207394  0.23130392  0.84898395     0.30800
H3357       H  0.24990183  0.32637055  0.75067011     0.30800
H3358       H  0.22677493  0.21232880  0.73366820     0.31100
Zr3359     Zr  0.27054843  0.27605334  0.52515532     2.17500
O3360       O  0.30039162  0.28989108  0.98862959    -0.51300
O3361       O  0.23254938  0.30352107  0.50684939    -0.74500
O3362       O  0.25595002  0.25964881  0.97544893    -0.81300
O3363       O  0.29855252  0.33070100  0.57345975    -0.83000
O3364       O  0.24500376  0.21497925  0.98121644    -0.78600
O3365       O  0.28998673  0.32059430  0.52404524    -0.90300
O3366       O  0.19594244  0.29492509  0.53603915    -0.76200
O3367       O  0.23064519  0.25043395  0.53297661    -0.85700
O3368       O  0.25099075  0.29517343  0.56883911    -0.85400
O3369       O  0.28608930  0.22997159  0.53115868    -0.72200
O3370       O  0.30462203  0.27090483  0.56398277    -0.84300
Zr3371     Zr  0.25751275  0.21870035  0.62411697     2.26400
Zr3372     Zr  0.24576633  0.20431114  0.53870248     2.06300
Zr3373     Zr  0.28483364  0.29115667  0.60742049     2.10000
Zr3374     Zr  0.21182695  0.26849399  0.57839462     1.78800
O3375       O  0.33037684  0.30309587  0.62253616    -0.93100
O3376       O  0.16790076  0.24901054  0.56670451    -0.40900
O3377       O  0.24456386  0.26532193  0.61821505    -0.77500
O3378       O  0.22511590  0.22240377  0.58358648    -0.96200
O3379       O  0.27707276  0.19884797  0.58044257    -0.89500
O3380       O  0.29753374  0.24426070  0.61578022    -0.92400
C3381       C  0.20775431  0.30683116  0.51379453     1.01400
C3382       C  0.29858449  0.33666923  0.54438754     1.14300
C3383       C  0.25073453  0.23637984  0.96452330     1.05100
O3384       O  0.20377016  0.19119663  0.51446027    -0.94500
O3385       O  0.22602089  0.16708831  0.57051212    -0.90300
O3386       O  0.23425839  0.17574898  0.62079093    -0.83400
C3387       C  0.22406800  0.16150748  0.59942754     1.11700
O3388       O  0.34864303  0.23274750  0.53150970    -0.96500
Zr3389     Zr  0.31722577  0.22390679  0.57301982     1.88900
O3390       O  0.29016230  0.18767135  0.64665819    -0.73200
O3391       O  0.27048233  0.16508365  0.52105362    -0.52400
O3392       O  0.33179585  0.18233362  0.54875031    -0.97100
O3393       O  0.35920975  0.23914257  0.59620545    -0.54300
O3394       O  0.32608588  0.19090431  0.61517376    -0.73700
C3395       C  0.31384998  0.18086802  0.63874316     0.98700
O3396       O  0.22188591  0.21243152  0.66171480    -0.62500
O3397       O  0.26468330  0.33043336  0.63107750    -0.57300
O3398       O  0.26905332  0.24174046  0.67037133    -0.94000
O3399       O  0.28527938  0.28476112  0.66352789    -0.92400
O3400       O  0.19904777  0.31258505  0.59791400    -0.92800
O3401       O  0.18242694  0.26106492  0.62202336    -0.91500
C3402       C  0.27829368  0.26423060  0.68054820     1.17500
H3403       H  0.24630194  0.31404227  0.56517650     0.33500
H3404       H  0.20902447  0.21238584  0.58863652     0.44300
H3405       H  0.30950812  0.24250588  0.63311739     0.37800
H3406       H  0.29486881  0.22437821  0.51276537     0.34300
H3407       H  0.15543919  0.26468149  0.56603283     0.26100
H3408       H  0.25758615  0.15540986  0.50784036     0.32000
H3409       H  0.32125379  0.16755005  0.55866839     0.38000
H3410       H  0.17918969  0.31239745  0.59790263     0.32400
H3411       H  0.26034808  0.34313319  0.61391196     0.31300
H3412       H  0.33769596  0.28633944  0.63234714     0.33000
H3413       H  0.35625892  0.23821298  0.61851666     0.31900
H3414       H  0.19196051  0.26937037  0.63940377     0.35900
H3415       H  0.21898441  0.23061072  0.67038688     0.28700
H3416       H  0.29124766  0.29850366  0.97079568     0.32900
H3417       H  0.36639762  0.22668341  0.53923329     0.35800
H3418       H  0.24701571  0.32377733  0.63826299     0.28400
H3419       H  0.20535248  0.20918891  0.64965508     0.41200
H3420       H  0.18974038  0.19712882  0.52870854     0.31300
H3421       H  0.16906996  0.24329371  0.54524071     0.38900
H3422       H  0.36025340  0.25884471  0.59113741     0.30800
H3423       H  0.28395167  0.17277614  0.50676462     0.30800
H3424       H  0.30725277  0.27234335  0.98125245     0.31100
C3425       C  0.19856273  0.34097422  0.88205573    -0.16400
C3426       C  0.20551404  0.35643984  0.90609373    -0.31500
H3427       H  0.18027237  0.34570210  0.86941076     0.12700
H3428       H  0.22315570  0.35146660  0.91977139     0.13200
C3429       C  0.16614416  0.33232638  0.50206131    -0.16400
C3430       C  0.19233374  0.32745834  0.49663033    -0.31500
H3431       H  0.15400426  0.31810011  0.51536951     0.12700
H3432       H  0.20365561  0.34137722  0.48199566     0.13200
C3433       C  0.34254850  0.35582932  0.86953260    -0.16400
C3434       C  0.32220439  0.36063942  0.84981574    -0.31500
H3435       H  0.34983140  0.33527440  0.87402329     0.12700
H3436       H  0.31539331  0.38115977  0.84427865     0.13200
C3437       C  0.24304374  0.47358274  0.95531920    -0.16400
C3438       C  0.25685734  0.49249492  0.93906645    -0.31500
H3439       H  0.25433484  0.45662049  0.96530151     0.12700
H3440       H  0.24709696  0.51050699  0.92950679     0.13200
C3441       C  0.30976981  0.36342191  0.53281855    -0.16400
C3442       C  0.30087556  0.37383926  0.00243892    -0.31500
H3443       H  0.32029026  0.37612832  0.54897732     0.12700
H3444       H  0.28827063  0.36253721  0.98684592     0.13200
C3445       C  0.23603431  0.12409945  0.76389324    -0.16400
C3446       C  0.23655833  0.13204632  0.79333827    -0.31500
H3447       H  0.24853757  0.13415382  0.74684325     0.12700
H3448       H  0.22447489  0.12136628  0.81034080     0.13200
C3449       C  0.18693691  0.14083148  0.62793785    -0.16400
C3450       C  0.20851727  0.13749217  0.60993230    -0.31500
H3451       H  0.17836401  0.16102739  0.62992176     0.12700
H3452       H  0.21683353  0.11738245  0.60661378     0.13200
C3453       C  0.37852974  0.17714145  0.75989113    -0.16400
C3454       C  0.35469260  0.18443310  0.74798032    -0.31500
H3455       H  0.38716562  0.18809658  0.77886145     0.12700
H3456       H  0.34623048  0.17271670  0.72960883     0.13200
C3457       C  0.26095618  0.01984150  0.74376107    -0.16400
C3458       C  0.27417364  0.04148743  0.75508294    -0.31500
H3459       H  0.27110302  0.00070247  0.73995057     0.12700
H3460       H  0.26309492  0.06009075  0.75913781     0.13200
C3461       C  0.32779570  0.15896505  0.65655993    -0.16400
C3462       C  0.31959483  0.14807507  0.68374767    -0.31500
H3463       H  0.34540416  0.15049185  0.64582438     0.12700
H3464       H  0.30329013  0.15720061  0.69618490     0.13200
C3465       C  0.02104264  0.40371742  0.85559974    -0.16400
C3466       C  0.02292248  0.39261972  0.88390693    -0.31500
H3467       H  0.03379283  0.42079073  0.84894096     0.12700
H3468       H  0.01004706  0.37577015  0.89092266     0.13200
C3469       C  0.83571779  0.29113697  0.86200545    -0.16400
C3470       C  0.82768221  0.29246457  0.89166686    -0.31500
H3471       H  0.82382814  0.27958530  0.84591622     0.12700
H3472       H  0.83961388  0.30352959  0.90812293     0.13200
C3473       C  0.79232507  0.34921798  0.76226106    -0.16400
C3474       C  0.78668768  0.32240442  0.76463297    -0.31500
H3475       H  0.77930897  0.36317310  0.74961304     0.12700
H3476       H  0.79977317  0.30930119  0.77842861     0.13200
C3477       C  0.00642499  0.07998983  0.71679036    -0.16400
C3478       C  0.02596081  0.09654800  0.70659562    -0.31500
H3479       H  0.01026611  0.05836948  0.72004847     0.12700
H3480       H  0.02241460  0.11806801  0.70198377     0.13200
C3481       C  0.81492841  0.17262510  0.85923892    -0.16400
C3482       C  0.80471624  0.19698743  0.85074256    -0.31500
H3483       H  0.80485923  0.15980005  0.87613790     0.12700
H3484       H  0.81416536  0.20923770  0.83286570     0.13200
C3485       C  0.95612140  0.24529640  0.77782227    -0.16400
C3486       C  0.93748961  0.26259983  0.76660632    -0.31500
H3487       H  0.97388087  0.25254549  0.78962354     0.12700
H3488       H  0.92007205  0.25357673  0.75552553     0.13200
C3489       C  0.84348846  0.21975435  0.73245416    -0.16400
C3490       C  0.83427218  0.21964191  0.70333375    -0.31500
H3491       H  0.83436099  0.23316055  0.74880398     0.12700
H3492       H  0.84397075  0.20712861  0.68654869     0.13200
C3493       C  0.46523096  0.08692491  0.63608224    -0.16400
C3494       C  0.48064095  0.07380264  0.65695985    -0.31500
H3495       H  0.45018500  0.10155433  0.64276091     0.12700
H3496       H  0.49647198  0.06007364  0.65041613     0.13200
C3497       C  0.62374816  0.19808975  0.56304813    -0.16400
C3498       C  0.64236317  0.18772592  0.58278797    -0.31500
H3499       H  0.62353518  0.21947405  0.55644315     0.12700
H3500       H  0.64222980  0.16590773  0.58761983     0.13200
C3501       C  0.62066314  0.16728006  0.94080015    -0.16400
C3502       C  0.62639707  0.14668846  0.96037578    -0.31500
H3503       H  0.60168925  0.16790486  0.92848126     0.12700
H3504       H  0.64992142  0.14789600  0.47093291     0.13200
C3505       C  0.51492095  0.42936264  0.46628990    -0.16400
C3506       C  0.49433136  0.41441365  0.94643034    -0.31500
H3507       H  0.51544795  0.45138484  0.46814656     0.12700
H3508       H  0.49598061  0.39263206  0.94286764     0.13200
C3509       C  0.58523050  0.30025024  0.67852365    -0.16400
C3510       C  0.59730983  0.28650675  0.65636899    -0.31500
H3511       H  0.59445650  0.30212695  0.70092296     0.12700
H3512       H  0.58962395  0.28776463  0.63311814     0.13200
C3513       C  0.50692863  0.23042577  0.54336206    -0.16400
C3514       C  0.51526582  0.25355116  0.52856885    -0.31500
H3515       H  0.49618231  0.23276197  0.56462256     0.12700
H3516       H  0.52484973  0.25192837  0.50652896     0.13200
C3517       C  0.61714688  0.28772945  0.53940678    -0.16400
C3518       C  0.63342080  0.29997104  0.51821824    -0.31500
H3519       H  0.61557550  0.26574597  0.54109874     0.12700
H3520       H  0.63351733  0.32202330  0.51629852     0.13200
C3521       C  0.99404219  0.49514068  0.01708652    -0.16400
C3522       C  0.00715909  0.49051452  0.99039937    -0.31500
H3523       H  0.00493248  0.49612704  0.03856361     0.12700
H3524       H  0.00064260  0.49351684  0.46733704     0.13200
C3525       C  0.88429338  0.43912803  0.92024393    -0.16400
C3526       C  0.86999666  0.45007089  0.89687824    -0.31500
H3527       H  0.90211536  0.42724762  0.91608018     0.12700
H3528       H  0.85215933  0.46216419  0.90064294     0.13200
C3529       C  0.80144494  0.61678366  0.90742457    -0.16400
C3530       C  0.80205385  0.62273116  0.87679640    -0.31500
H3531       H  0.79127878  0.63050385  0.92260649     0.12700
H3532       H  0.81168766  0.60900198  0.86122927     0.13200
C3533       C  0.85939234  0.65666070  0.50475772    -0.16400
C3534       C  0.83393184  0.66526270  0.50067331    -0.31500
H3535       H  0.87329553  0.66733163  0.51949222     0.12700
H3536       H  0.82098277  0.65452810  0.48481781     0.13200
C3537       C  0.51034894  0.49894769  0.92477279    -0.16400
C3538       C  0.49570918  0.49809270  0.89808255    -0.31500
H3539       H  0.49905257  0.49514423  0.94556398     0.12700
H3540       H  0.50545836  0.50002084  0.87609321     0.13200
C3541       C  0.59716328  0.46240351  0.58422406    -0.16400
C3542       C  0.57832479  0.47012669  0.60381028    -0.31500
H3543       H  0.60707518  0.44288405  0.58757092     0.12700
H3544       H  0.56838119  0.48958391  0.59996978     0.13200
C3545       C  0.66892367  0.65065391  0.92146928    -0.16400
C3546       C  0.69527298  0.65636262  0.92430850    -0.31500
H3547       H  0.65588653  0.66366000  0.90758164     0.12700
H3548       H  0.70785394  0.64391753  0.93938478     0.13200
C3549       C  0.74182255  0.50237135  0.98595510    -0.16400
C3550       C  0.75529846  0.52228890  0.00020121    -0.31500
H3551       H  0.75157857  0.48375981  0.97912588     0.12700
H3552       H  0.74448726  0.54046333  0.00672484     0.13200
C3553       C  0.71444867  0.62577532  0.56312492    -0.16400
C3554       C  0.71644722  0.61564600  0.03095932    -0.31500
H3555       H  0.70051377  0.61742593  0.57982954     0.12700
H3556       H  0.73020644  0.62411444  0.01412997     0.13200
C3557       C  0.00714929  0.00040295  0.69372328    -0.16400
C3558       C  0.02899621  0.99534990  0.67598112    -0.31500
H3559       H  0.01138831  0.01034394  0.71511332     0.12700
H3560       H  0.02623347  0.98528891  0.65438278     0.13200
C3561       C  0.89754511  0.98493825  0.82237072    -0.16400
C3562       C  0.88377858  0.00657979  0.83196863    -0.31500
H3563       H  0.90131350  0.96802850  0.83817178     0.12700
H3564       H  0.87602178  0.00587848  0.85505303     0.13200
C3565       C  0.81042661  0.84117241  0.72632778    -0.16400
C3566       C  0.81874290  0.82262715  0.74804018    -0.31500
H3567       H  0.78997157  0.84117731  0.71770347     0.12700
H3568       H  0.83979911  0.82301609  0.75468018     0.13200
C3569       C  0.85737611  0.84192155  0.62091114    -0.16400
C3570       C  0.83462284  0.84510124  0.60443385    -0.31500
H3571       H  0.86340792  0.82170572  0.62875634     0.12700
H3572       H  0.82894279  0.86493025  0.59508024     0.13200
C3573       C  0.52966716  0.00415616  0.76710707    -0.16400
C3574       C  0.50630605  0.99516645  0.75478352    -0.31500
H3575       H  0.52928470  0.01897916  0.78509852     0.12700
H3576       H  0.50810822  0.97963085  0.73762564     0.13200
C3577       C  0.61366942  0.02547772  0.61435056    -0.16400
C3578       C  0.59783759  0.01418102  0.59312052    -0.31500
H3579       H  0.62108840  0.04616704  0.61129145     0.12700
H3580       H  0.59009699  0.99368117  0.59690303     0.13200
C3581       C  0.67656148  0.84366517  0.79279959    -0.16400
C3582       C  0.69809044  0.84659214  0.81116078    -0.31500
H3583       H  0.66939870  0.82349741  0.78699255     0.12700
H3584       H  0.70449317  0.86653613  0.81865078     0.13200
C3585       C  0.75859636  0.98090425  0.71285856    -0.16400
C3586       C  0.77264250  0.96279006  0.69687925    -0.31500
H3587       H  0.76826757  0.99805834  0.72364351     0.12700
H3588       H  0.76153171  0.94663230  0.68574821     0.13200
C3589       C  0.71918816  0.85340341  0.68010397    -0.16400
C3590       C  0.70951736  0.83693664  0.65795809    -0.31500
H3591       H  0.73765971  0.84833325  0.69218846     0.12700
H3592       H  0.69025685  0.84207812  0.64760840     0.13200
C3593       C  0.95773958  0.52019477  0.78068344    -0.16400
C3594       C  0.95462253  0.50204675  0.75762160    -0.31500
H3595       H  0.95096024  0.51356170  0.80315644     0.12700
H3596       H  0.96145791  0.50735159  0.73480353     0.13200
C3597       C  0.98233831  0.58569690  0.91935641    -0.16400
C3598       C  0.98515766  0.55978610  0.92891297    -0.31500
H3599       H  0.96979884  0.59970391  0.93168891     0.12700
H3600       H  0.99715825  0.54557809  0.91617455     0.13200
C3601       C  0.10567447  0.53072691  0.85034461    -0.16400
C3602       C  0.09051472  0.52182232  0.82709444    -0.31500
H3603       H  0.11444185  0.55097746  0.84951107     0.12700
H3604       H  0.08157318  0.50163136  0.82859036     0.13200
C3605       C  0.13095522  0.70155906  0.86587335    -0.16400
C3606       C  0.11851532  0.71157181  0.84027522    -0.31500
H3607       H  0.12445421  0.68187427  0.87488823     0.12700
H3608       H  0.12516800  0.73030450  0.82909883     0.13200
C3609       C  0.10800638  0.67534487  0.71211748    -0.16400
C3610       C  0.10889303  0.69942532  0.72580375    -0.31500
H3611       H  0.12407736  0.66898324  0.69725541     0.12700
H3612       H  0.09499317  0.70411993  0.74378301     0.13200
C3613       C  0.97044840  0.99467756  0.83621756    -0.16400
C3614       C  0.98051607  0.02016421  0.84093788    -0.31500
H3615       H  0.95010456  0.99267620  0.82792743     0.12700
H3616       H  0.00040066  0.02230116  0.85087209     0.13200
C3617       C  0.09637190  0.99819799  0.85353326    -0.16400
C3618       C  0.11722830  0.99062945  0.83686351    -0.31500
H3619       H  0.08635332  0.01722486  0.84753861     0.12700
H3620       H  0.12729562  0.97148987  0.84236129     0.13200
C3621       C  0.03048870  0.92576021  0.71051088    -0.16400
C3622       C  0.01591778  0.90893585  0.69327625    -0.31500
H3623       H  0.02748818  0.94738036  0.70666680     0.12700
H3624       H  0.02290574  0.88819695  0.69064339     0.13200
C3625       C  0.10238181  0.83621952  0.94913996    -0.16400
C3626       C  0.11115765  0.81647449  0.93093422    -0.31500
H3627       H  0.11311498  0.84117457  0.96995310     0.12700
H3628       H  0.10196812  0.81401498  0.90863457     0.13200
C3629       C  0.01929846  0.76790058  0.81096514    -0.16400
C3630       C  0.01432384  0.74665411  0.83048122    -0.31500
H3631       H  0.02097391  0.76390013  0.78677088     0.12700
H3632       H  0.01163778  0.75057795  0.85454661     0.13200
C3633       C  0.15473468  0.81439643  0.80794964    -0.16400
C3634       C  0.13418368  0.80402317  0.82473193    -0.31500
H3635       H  0.16076338  0.83547405  0.81051601     0.12700
H3636       H  0.12755995  0.78318936  0.82169964     0.13200
C3637       C  0.53043067  0.89735247  0.64536721    -0.16400
C3638       C  0.53478401  0.88880759  0.67432253    -0.31500
H3639       H  0.54201009  0.91418446  0.63568984     0.12700
H3640       H  0.52337579  0.87207082  0.68438782     0.13200
C3641       C  0.38418104  0.96410608  0.65029020    -0.16400
C3642       C  0.39293130  0.97280618  0.62296056    -0.31500
H3643       H  0.37418372  0.94454932  0.65330704     0.12700
H3644       H  0.40346871  0.99214215  0.62059521     0.13200
C3645       C  0.48930638  0.96859962  0.51969010    -0.16400
C3646       C  0.47857825  0.99105599  0.50551672    -0.31500
H3647       H  0.50860867  0.97123724  0.53092685     0.12700
H3648       H  0.45911121  0.98976723  0.49438299     0.13200
C3649       C  0.34470401  0.78190419  0.64427120    -0.16400
C3650       C  0.33624114  0.78209710  0.67368273    -0.31500
H3651       H  0.33376805  0.76986516  0.62777867     0.12700
H3652       H  0.34747587  0.79342659  0.69051990     0.13200
C3653       C  0.31146010  0.83417053  0.53070143    -0.16400
C3654       C  0.30219054  0.80886604  0.53603336    -0.31500
H3655       H  0.30013854  0.84865988  0.51667405     0.12700
H3656       H  0.31445797  0.79436177  0.05508912     0.13200
C3657       C  0.44958207  0.48898906  0.62846173    -0.16400
C3658       C  0.44342474  0.46589609  0.61259809    -0.31500
H3659       H  0.46664708  0.48867526  0.64397317     0.12700
H3660       H  0.42599426  0.46657635  0.59761854     0.13200
C3661       C  0.49434151  0.57738696  0.50490591    -0.16400
C3662       C  0.52093580  0.59520706  0.01808713    -0.31500
H3663       H  0.49533339  0.55657782  0.49699890     0.12700
H3664       H  0.51115911  0.61414068  0.01125998     0.13200
C3665       C  0.38841921  0.54639414  0.49683018    -0.16400
C3666       C  0.36547057  0.53437065  0.50619103    -0.31500
H3667       H  0.40083989  0.55759821  0.51229352     0.12700
H3668       H  0.35343256  0.52192090  0.49126927     0.13200
C3669       C  0.28168587  0.67796242  0.61563289    -0.16400
C3670       C  0.28460695  0.65079222  0.61926525    -0.31500
H3671       H  0.29571049  0.68945477  0.60144164     0.12700
H3672       H  0.27022083  0.63864725  0.63218247     0.13200
C3673       C  0.43183579  0.72613794  0.59359739    -0.16400
C3674       C  0.45288649  0.74165732  0.58498522    -0.31500
H3675       H  0.41404036  0.73690487  0.60099854     0.12700
H3676       H  0.47200809  0.73268668  0.57922538     0.13200
C3677       C  0.33336944  0.70579733  0.52228274    -0.16400
C3678       C  0.32650534  0.70671742  0.49203804    -0.31500
H3679       H  0.32307307  0.71868203  0.53823681     0.12700
H3680       H  0.33766555  0.68695916  0.98027970     0.13200
loop_ 
_geom_bond_atom_site_label_1 
_geom_bond_atom_site_label_2 
_geom_bond_distance 
_geom_bond_site_symmetry_2 
_ccdc_geom_bond_type 
Zr1           O2   2.437       .  S
Zr1           O3   2.498       .  S
Zr1           O4   2.391       .  S
Zr1           O7   2.348       .  S
Zr1           O9   2.356       .  S
Zr1          O10   2.367       .  S
Zr1          O11   2.417       .  S
Zr1          O12   2.424       .  S
O2           H58   0.990       .  S
O2           H66   0.990       .  S
O3           C23   1.298       .  A
O4           C25   1.275       .  A
O5          Zr15   2.483       .  S
O5           C24   1.290       .  A
O6          Zr14   2.454       .  S
O6           C25   1.285       .  A
O7           C24   1.271       .  A
O8          Zr16   2.396       .  S
O8           C23   1.275       .  A
O9          Zr14   2.380       .  S
O9          Zr16   2.374       .  S
O10         Zr15   2.385       .  S
O10         Zr16   2.387       .  S
O10          H45   0.965       .  S
O11         Zr14   2.379       .  S
O11         Zr31   2.449       .  S
O11          H48   0.966       .  S
O12         Zr15   2.389       .  S
O12         Zr31   2.453       .  S
Zr13         O38   2.426       .  S
Zr13         O32   2.379       .  S
Zr13         O40   2.407       .  S
Zr13         O28   2.414       .  S
Zr13         O19   2.402       .  S
Zr13         O20   2.398       .  S
Zr13         O21   2.366       .  S
Zr13         O22   2.400       .  S
Zr14         O33   2.437       .  S
Zr14         O26   2.437       .  S
Zr14         O27   2.387       .  S
Zr14         O20   2.420       .  S
Zr14         O21   2.409       .  S
Zr15         O17   2.435       .  S
Zr15         O39   2.441       .  S
Zr15         O41   2.434       .  S
Zr15         O19   2.423       .  S
Zr15         O22   2.412       .  S
Zr16         O42   2.434   1_554  S
Zr16         O43   2.436   1_554  S
Zr16         O18   2.436       .  S
Zr16         O19   2.367       .  S
Zr16         O20   2.375       .  S
O17          H54   0.990       .  S
O18          H63   0.990       .  S
O18        H1889   0.990       .  S
O20          H46   0.963       .  S
O21         Zr31   2.354       .  S
O22         Zr31   2.334       .  S
O22          H47   0.966       .  S
C23        C1837   1.491       .  S
C24        C1830   1.471       .  S
C25        C1833   1.464       .  S
O26          H62   0.991       .  S
O27          C29   1.274       .  A
O28          C29   1.280       .  A
C29        C1821   1.433       .  S
O30         Zr31   2.436       .  S
O30          H59   0.990       .  S
Zr31         O34   2.438       .  S
Zr31         O35   2.439       .  S
Zr31         O36   2.570       .  S
O32          C37   1.274       .  A
O33          H50   0.990       .  S
O33          H65   0.990       .  S
O34          H51   0.990       .  S
O35          H55   0.990       .  S
O35          H64   0.990       .  S
O36          C37   1.310       .  A
C37        C1817   1.522       .  S
O38          H57   0.990       .  S
O38          H61   0.989       .  S
O39          H53   0.990       .  S
O39          H60   0.991       .  S
O40          C44   1.257       .  A
O41          C44   1.278       .  A
O42          H52   0.990   1_556  S
O43        H1896   0.989       .  S
C44        C1826   1.441       .  S
H49        O1858   0.991       .  S
H56        O1883   0.989       .  S
Zr67       O1908   2.442       .  S
Zr67         O69   2.487       .  S
Zr67         O70   2.397       .  S
Zr67         O73   2.374       .  S
Zr67         O75   2.358       .  S
Zr67         O76   2.368       .  S
Zr67         O77   2.423       .  S
Zr67         O78   2.419       .  S
O68       Zr1907   2.439       .  S
O68         H124   0.990       .  S
O68         H132   0.990       .  S
O69          C89   1.295       .  A
O70          C91   1.280       .  A
O71         Zr81   2.460       .  S
O71          C90   1.287       .  A
O72         Zr80   2.441       .  S
O72          C91   1.282       .  A
O73          C90   1.275       .  A
O74         Zr82   2.412       .  S
O74          C89   1.278       .  A
O75         Zr80   2.395       .  S
O75         Zr82   2.365       .  S
O76         Zr81   2.387       .  S
O76         Zr82   2.387       .  S
O76         H111   0.966       .  S
O77         Zr80   2.395       .  S
O77         Zr97   2.438       .  S
O77         H114   0.966       .  S
O78         Zr81   2.379       .  S
O78         Zr97   2.424       .  S
Zr79        O104   2.442       .  S
Zr79         O98   2.445       .  S
Zr79        O106   2.414       .  S
Zr79         O94   2.425       .  S
Zr79         O85   2.382       .  S
Zr79         O86   2.421       .  S
Zr79         O87   2.377       .  S
Zr79         O88   2.385       .  S
Zr80         O99   2.436       .  S
Zr80         O92   2.436       .  S
Zr80         O93   2.423       .  S
Zr80         O86   2.404       .  S
Zr80         O87   2.405       .  S
Zr81         O83   2.439       .  S
Zr81        O105   2.438       .  S
Zr81        O107   2.417       .  S
Zr81         O85   2.393       .  S
Zr81         O88   2.396       .  S
Zr82        O108   2.433       .  S
Zr82        O109   2.436       .  S
Zr82         O84   2.438       .  S
Zr82         O85   2.372       .  S
Zr82         O86   2.384       .  S
O83         H120   0.990       .  S
O84         H115   0.990       .  S
O84         H129   0.990       .  S
O86         H112   0.963       .  S
O87         Zr97   2.385       .  S
O88         Zr97   2.379       .  S
O88         H113   0.966       .  S
C89        C1809   1.494       .  S
C90        C1813   1.471       .  S
C91        C1834   1.472       .  S
O92         H128   0.991       .  S
O93          C95   1.279       .  A
O94          C95   1.282       .  A
C95        C1797   1.451       .  S
O96       Zr1937   2.436       .  S
O96         H125   0.990       .  S
Zr97        O100   2.438       .  S
Zr97       O1936   2.438   1_554  S
Zr97       O1941   2.439   1_554  S
Zr97        O102   2.496       .  S
O98         C103   1.285       .  A
O99         H116   0.990       .  S
O99         H131   0.990       .  S
O100       H1957   0.990       .  S
O101      Zr1937   2.438       .  S
O101        H121   0.990       .  S
O101        H130   0.990       .  S
O102        C103   1.291       .  A
C103       C1805   1.506       .  S
O104        H123   0.991       .  S
O104        H127   0.990       .  S
O105        H119   0.990       .  S
O105        H126   0.990       .  S
O106        C110   1.284       .  A
O107        C110   1.277       .  A
O108        H118   0.990       .  S
O109        H122   0.990       .  S
C110       C1802   1.448       .  S
H117       O1940   0.990       .  S
Zr133       O134   2.442       .  S
Zr133       O135   2.497       .  S
Zr133       O136   2.449       .  S
Zr133       O139   2.407       .  S
Zr133       O141   2.366       .  S
Zr133       O142   2.402       .  S
Zr133       O143   2.409       .  S
Zr133       O144   2.438       .  S
O134        H190   0.990       .  S
O134        H198   0.991       .  S
O135        C155   1.291       .  A
O136        C157   1.283       .  A
O137       Zr147   2.452       .  S
O137        C156   1.281       .  A
O138       Zr146   2.455       .  S
O138        C157   1.287       .  A
O139        C156   1.272       .  A
O140       Zr148   2.368       .  S
O140        C155   1.265       .  A
O141       Zr146   2.373       .  S
O141       Zr148   2.396       .  S
O142       Zr147   2.404       .  S
O142       Zr148   2.372       .  S
O142        H177   0.964       .  S
O143       Zr146   2.379       .  S
O143       Zr163   2.432   1_455  S
O143        H180   0.964   1_455  S
O144       Zr147   2.403       .  S
O144       Zr163   2.428   1_455  S
Zr145       O170   2.433       .  S
Zr145       O164   2.400       .  S
Zr145       O172   2.397       .  S
Zr145       O160   2.452       .  S
Zr145       O151   2.403       .  S
Zr145       O152   2.388       .  S
Zr145       O153   2.378       .  S
Zr145       O154   2.394       .  S
Zr146       O165   2.437   1_455  S
Zr146       O158   2.437       .  S
Zr146       O159   2.386       .  S
Zr146       O152   2.408       .  S
Zr146       O153   2.410       .  S
Zr147       O149   2.433       .  S
Zr147       O171   2.440       .  S
Zr147       O173   2.455       .  S
Zr147       O151   2.404       .  S
Zr147       O154   2.379       .  S
Zr148       O174   2.430       .  S
Zr148       O175   2.437       .  S
Zr148       O150   2.436       .  S
Zr148       O151   2.367       .  S
Zr148       O152   2.349       .  S
O149        H186   0.990       .  S
O150        H181   0.990       .  S
O150        H195   0.989       .  S
O152        H178   0.965       .  S
O153       Zr163   2.361   1_455  S
O154       Zr163   2.344   1_455  S
O154        H179   0.965       .  S
C155       C1794   1.480       .  S
C156       C1785   1.467       .  S
C157       C1789   1.495       .  S
O158        H194   0.990       .  S
O159        C161   1.281       .  A
O160        C161   1.290       .  A
C161       C1781   1.464       .  S
O162       Zr163   2.434       .  S
O162        H191   0.990       .  S
Zr163       O166   2.423       .  S
Zr163       O167   2.439       .  S
Zr163       O168   2.517       .  S
O164        C169   1.278   1_455  A
O165        H182   0.990       .  S
O165        H197   0.990       .  S
O166        H183   0.989       .  S
O167        H187   0.991       .  S
O167        H196   0.990       .  S
O168        C169   1.300       .  A
C169       C1773   1.495       .  S
O170        H189   0.990       .  S
O170        H193   0.990       .  S
O171        H185   0.990       .  S
O171        H192   0.991       .  S
O172        C176   1.270       .  A
O173        C176   1.288       .  A
O174        H184   0.990       .  S
O175        H188   0.990       .  S
C176       C1777   1.454       .  S
Zr199       O200   2.446       .  S
Zr199       O201   2.505       .  S
Zr199       O202   2.423       .  S
Zr199       O205   2.391       .  S
Zr199       O207   2.371       .  S
Zr199       O208   2.398       .  S
Zr199       O209   2.422       .  S
Zr199       O210   2.426       .  S
O200        H256   0.990       .  S
O200        H264   0.991       .  S
O201        C221   1.290       .  A
O202        C223   1.280       .  A
O203       Zr213   2.425       .  S
O203        C222   1.276       .  A
O204       Zr212   2.480   1_455  S
O204        C223   1.291       .  A
O205        C222   1.269       .  A
O206       Zr214   2.377       .  S
O206        C221   1.266       .  A
O207       Zr212   2.369   1_455  S
O207       Zr214   2.372       .  S
O208       Zr213   2.417       .  S
O208       Zr214   2.382       .  S
O208        H243   0.966       .  S
O209       Zr212   2.388   1_455  S
O209       Zr229   2.449   1_455  S
O209        H246   0.966   1_455  S
O210       Zr213   2.400       .  S
O210       Zr229   2.419   1_455  S
Zr211       O236   2.436       .  S
Zr211       O230   2.425   1_455  S
Zr211       O238   2.419       .  S
Zr211       O226   2.393       .  S
Zr211       O217   2.386       .  S
Zr211       O218   2.406       .  S
Zr211       O219   2.378   1_455  S
Zr211       O220   2.375       .  S
Zr212       O231   2.429       .  S
Zr212       O224   2.433       .  S
Zr212       O225   2.413       .  S
Zr212       O218   2.412   1_655  S
Zr212       O219   2.415       .  S
Zr213       O215   2.436       .  S
Zr213       O237   2.439       .  S
Zr213       O239   2.445       .  S
Zr213       O217   2.386       .  S
Zr213       O220   2.400       .  S
Zr214       O240   2.435       .  S
Zr214       O241   2.437       .  S
Zr214       O216   2.442       .  S
Zr214       O217   2.373       .  S
Zr214       O218   2.360       .  S
O215        H252   0.990       .  S
O216        H247   0.990       .  S
O216        H261   0.990       .  S
O218        H244   0.963       .  S
O219       Zr229   2.374       .  S
O220       Zr229   2.376   1_455  S
O220        H245   0.966       .  S
C221       C1766   1.491       .  S
C222       C1769   1.451       .  S
C223       C1790   1.499       .  S
O224        H260   0.991   1_655  S
O225        C227   1.278       .  A
O226        C227   1.280   1_455  A
C227       C1757   1.447       .  S
O228       Zr229   2.436       .  S
O228        H257   0.990       .  S
Zr229       O232   2.435       .  S
Zr229       O233   2.439       .  S
Zr229       O234   2.513       .  S
O230        C235   1.280       .  A
O231        H248   0.990       .  S
O231        H263   0.990       .  S
O232        H249   0.990       .  S
O233        H253   0.990       .  S
O233        H262   0.990   1_655  S
O234        C235   1.296       .  A
C235       C1753   1.505       .  S
O236        H255   0.990       .  S
O236        H259   0.990       .  S
O237        H251   0.990       .  S
O237        H258   0.990       .  S
O238        C242   1.275       .  A
O239        C242   1.284       .  A
O240        H250   0.990       .  S
O241        H254   0.990       .  S
C242       C1762   1.453       .  S
Zr265       O266   2.438       .  S
Zr265       O267   2.424       .  S
Zr265       O268   2.431       .  S
Zr265       O271   2.428       .  S
Zr265       O273   2.373       .  S
Zr265       O274   2.385       .  S
Zr265       O275   2.401       .  S
Zr265       O276   2.399       .  S
O266        H322   0.990       .  S
O266        H330   0.990       .  S
O267        C287   1.280       .  A
O268        C289   1.288       .  A
O269       Zr279   2.417       .  S
O269        C288   1.282       .  A
O270       Zr278   2.463       .  S
O270        C289   1.289       .  A
O271        C288   1.285       .  A
O272       Zr280   2.459       .  S
O272        C287   1.290       .  A
O273       Zr278   2.403       .  S
O273       Zr280   2.359       .  S
O274       Zr279   2.400       .  S
O274       Zr280   2.364       .  S
O274        H309   0.966       .  S
O275       Zr278   2.413       .  S
O275       Zr295   2.395       .  S
O275        H312   0.966       .  S
O276       Zr279   2.411       .  S
O276       Zr295   2.384       .  S
Zr277      O2142   2.440       .  S
Zr277       O292   2.360       .  S
Zr277      O2136   2.413       .  S
Zr277      O2144   2.375       .  S
Zr277       O283   2.389       .  S
Zr277       O284   2.395       .  S
Zr277       O285   2.372       .  S
Zr277       O286   2.365       .  S
Zr278       O297   2.433       .  S
Zr278       O290   2.432       .  S
Zr278       O291   2.496       .  S
Zr278       O284   2.394       .  S
Zr278       O285   2.377       .  S
Zr279       O281   2.432       .  S
Zr279      O2143   2.439       .  S
Zr279      O2145   2.484       .  S
Zr279       O283   2.380       .  S
Zr279       O286   2.381       .  S
Zr280       O306   2.436       .  S
Zr280       O307   2.430       .  S
Zr280       O282   2.436       .  S
Zr280       O283   2.412       .  S
Zr280       O284   2.407       .  S
O281       H2158   0.990       .  S
O282        H313   0.990       .  S
O282        H327   0.990       .  S
O284        H310   0.966       .  S
O285       Zr295   2.376       .  S
O286       Zr295   2.376       .  S
O286       H2151   0.966       .  S
C287       C1765   1.481       .  S
C288       C1786   1.462       .  S
C289        C355   1.484       .  S
O290        H326   0.990       .  S
O291        C293   1.296       .  A
O292        C293   1.271       .  A
C293       C3678   1.482       .  S
O294       Zr295   2.436       .  S
O294        H323   0.990       .  S
Zr295       O298   2.439       .  S
Zr295       O299   2.439       .  S
Zr295       O300   2.410       .  S
O296      Zr2117   2.426       .  S
O296        C301   1.283       .  A
O297        H314   0.989       .  S
O297        H329   0.990       .  S
O298        H315   0.990       .  S
O299        H319   0.990       .  S
O299        H328   0.990       .  S
O300       C2141   1.280       .  A
C301       O2140   1.279       .  A
C301       C1814   1.466       .  S
O302      Zr2117   2.441       .  S
O302        H321   0.990       .  S
O302        H325   0.991       .  S
O303      Zr2119   2.435   1_554  S
O303        H317   0.990   1_554  S
O303       H2164   0.990       .  S
O304      Zr2117   2.370       .  S
O304        C308   1.274       .  A
O305      Zr2119   2.474   1_554  S
O305        C308   1.288       .  A
O306        H316   0.990       .  S
O307        H320   0.990       .  S
C308        C374   1.468       .  S
H311       O2126   0.966       .  S
H318       O2121   0.990       .  S
H324       O2143   0.990       .  S
Zr331       O332   2.438       .  S
Zr331       O333   2.378       .  S
Zr331       O334   2.409       .  S
Zr331       O337   2.420       .  S
Zr331       O339   2.379       .  S
Zr331       O340   2.385       .  S
Zr331       O341   2.390       .  S
Zr331       O342   2.372       .  S
O332        H388   0.989       .  S
O332        H396   0.990       .  S
O333        C353   1.273       .  A
O334        C355   1.281       .  A
O335       Zr345   2.396       .  S
O335        C354   1.278       .  A
O336       Zr344   2.488       .  S
O336        C355   1.294       .  A
O337        C354   1.282       .  A
O338       Zr346   2.472       .  S
O338        C353   1.293       .  A
O339       Zr344   2.398       .  S
O339       Zr346   2.361       .  S
O340       Zr345   2.394       .  S
O340       Zr346   2.369       .  S
O340        H375   0.966       .  S
O341       Zr344   2.419       .  S
O341       Zr361   2.392       .  S
O341        H378   0.966       .  S
O342       Zr345   2.400       .  S
O342       Zr361   2.364       .  S
Zr343       O368   2.443       .  S
Zr343       O362   2.441       .  S
Zr343       O370   2.400       .  S
Zr343       O358   2.393       .  S
Zr343       O349   2.397       .  S
Zr343       O350   2.410       .  S
Zr343       O351   2.377       .  S
Zr343       O352   2.364       .  S
Zr344       O363   2.434       .  S
Zr344       O356   2.437       .  S
Zr344       O357   2.511       .  S
Zr344       O350   2.402       .  S
Zr344       O351   2.395       .  S
Zr345       O347   2.438       .  S
Zr345       O369   2.440       .  S
Zr345       O371   2.441       .  S
Zr345       O349   2.384       .  S
Zr345       O352   2.387       .  S
Zr346       O372   2.437       .  S
Zr346       O373   2.441       .  S
Zr346       O348   2.440       .  S
Zr346       O349   2.412       .  S
Zr346       O350   2.414       .  S
O347        H384   0.991       .  S
O348        H379   0.990       .  S
O348        H393   0.990       .  S
O350        H376   0.966       .  S
O351       Zr361   2.389       .  S
O352       Zr361   2.387       .  S
O352        H377   0.965       .  S
C353       C1793   1.472       .  S
C354       C1770   1.444       .  S
O356        H392   0.990       .  S
O357        C359   1.300       .  A
O358        C359   1.277       .  A
C359       C1810   1.499       .  S
O360       Zr361   2.435       .  S
O360        H389   0.990       .  S
Zr361       O364   2.434       .  S
Zr361       O365   2.437       .  S
Zr361       O366   2.389       .  S
O362        C367   1.286       .  A
O363        H380   0.990       .  S
O363        H395   0.990       .  S
O364        H381   0.990       .  S
O365        H385   0.990       .  S
O365        H394   0.990       .  S
O366        C367   1.275       .  A
C367       C1829   1.466       .  S
O368        H387   0.991       .  S
O368        H391   0.991       .  S
O369        H383   0.990       .  S
O369        H390   0.990       .  S
O370        C374   1.280       .  A
O371        C374   1.281       .  A
O372        H382   0.990       .  S
O373        H386   0.991       .  S
Zr397       O398   2.446       .  S
Zr397       O399   2.423       .  S
Zr397       O400   2.408       .  S
Zr397       O403   2.406       .  S
Zr397       O405   2.376       .  S
Zr397       O406   2.384       .  S
Zr397       O407   2.409       .  S
Zr397       O408   2.383       .  S
O398        H454   0.990       .  S
O398        H462   0.991       .  S
O399        C419   1.280       .  A
O400        C421   1.279       .  A
O401       Zr411   2.445   1_545  S
O401        C420   1.285       .  A
O402       Zr410   2.441       .  S
O402        C421   1.283       .  A
O403        C420   1.281   1_565  A
O404       Zr412   2.505       .  S
O404        C419   1.292       .  A
O405       Zr410   2.405       .  S
O405       Zr412   2.377       .  S
O406       Zr411   2.418       .  S
O406       Zr412   2.383       .  S
O406        H441   0.966   1_565  S
O407       Zr410   2.408       .  S
O407       Zr427   2.368       .  S
O407        H444   0.963       .  S
O408       Zr411   2.384       .  S
O408       Zr427   2.358       .  S
Zr409       O434   2.444       .  S
Zr409       O428   2.508       .  S
Zr409       O436   2.413       .  S
Zr409       O424   2.385       .  S
Zr409       O415   2.419       .  S
Zr409       O416   2.425       .  S
Zr409       O417   2.364       .  S
Zr409       O418   2.375       .  S
Zr410       O429   2.436       .  S
Zr410       O422   2.435       .  S
Zr410       O423   2.448       .  S
Zr410       O416   2.393       .  S
Zr410       O417   2.386       .  S
Zr411       O413   2.438   1_565  S
Zr411       O435   2.433   1_565  S
Zr411       O437   2.474       .  S
Zr411       O415   2.387       .  S
Zr411       O418   2.394       .  S
Zr412       O438   2.437   1_565  S
Zr412       O439   2.436       .  S
Zr412       O414   2.438       .  S
Zr412       O415   2.440       .  S
Zr412       O416   2.426       .  S
O413        H450   0.990       .  S
O414        H445   0.990       .  S
O414        H459   0.990       .  S
O416        H442   0.966       .  S
O417       Zr427   2.379       .  S
O418       Zr427   2.374       .  S
O418        H443   0.964       .  S
C419       C1733   1.510   1_565  S
C420       C1737   1.466       .  S
C421       C1798   1.452       .  S
O422        H458   0.990       .  S
O423        C425   1.286       .  A
O424        C425   1.277       .  A
C425       C1741   1.468       .  S
O426       Zr427   2.438       .  S
O426        H455   0.990       .  S
Zr427       O430   2.438       .  S
Zr427       O431   2.439       .  S
Zr427       O432   2.387       .  S
O428        C433   1.298       .  A
O429        H446   0.990       .  S
O429        H461   0.990       .  S
O430        H447   0.990       .  S
O431        H451   0.989       .  S
O431        H460   0.991       .  S
O432        C433   1.278       .  A
C433       C1749   1.506       .  S
O434        H453   0.991       .  S
O434        H457   0.990       .  S
O435        H449   0.990       .  S
O435        H456   0.990       .  S
O436        C440   1.281       .  A
O437        C440   1.289       .  A
O438        H448   0.990       .  S
O439        H452   0.990       .  S
C440       C1745   1.478       .  S
Zr463       O464   2.414       .  S
Zr463       O465   2.404       .  S
Zr463       O466   2.436       .  S
Zr463       O469   2.447       .  S
Zr463       O471   2.343       .  S
Zr463       O472   2.387       .  S
Zr463       O473   2.398       .  S
Zr463       O474   2.364       .  S
O464        H520   0.989       .  S
O464        H528   0.989       .  S
O465        C485   1.278       .  A
O466        C487   1.288       .  A
O467       Zr477   2.427       .  S
O467        C486   1.285       .  A
O468       Zr476   2.405       .  S
O468        C487   1.278       .  A
O469        C486   1.289       .  A
O470       Zr478   2.559       .  S
O470        C485   1.303       .  A
O471       Zr476   2.371       .  S
O471       Zr478   2.315       .  S
O472       Zr477   2.410       .  S
O472       Zr478   2.378       .  S
O472        H507   0.963       .  S
O473       Zr476   2.409       .  S
O473       Zr493   2.392       .  S
O473        H510   0.966       .  S
O474       Zr477   2.381       .  S
O474       Zr493   2.340       .  S
Zr475       O500   2.441       .  S
Zr475       O494   2.513       .  S
Zr475       O502   2.410       .  S
Zr475       O490   2.384       .  S
Zr475       O481   2.418       .  S
Zr475       O482   2.440       .  S
Zr475       O483   2.369       .  S
Zr475       O484   2.366       .  S
Zr476       O495   2.433       .  S
Zr476       O488   2.431       .  S
Zr476       O489   2.432       .  S
Zr476       O482   2.396       .  S
Zr476       O483   2.382       .  S
Zr477       O479   2.440   1_565  S
Zr477       O501   2.445   1_565  S
Zr477       O503   2.464       .  S
Zr477       O481   2.373       .  S
Zr477       O484   2.394       .  S
Zr478       O504   2.434   1_565  S
Zr478       O505   2.433       .  S
Zr478       O480   2.437       .  S
Zr478       O481   2.453       .  S
Zr478       O482   2.439       .  S
O479        H516   0.990       .  S
O480        H511   0.990       .  S
O480        H525   0.990       .  S
O482        H508   0.966       .  S
O483       Zr493   2.368       .  S
O484       Zr493   2.392       .  S
O484        H509   0.965       .  S
C485       C1717   1.523   1_655  S
C486       C1721   1.466       .  S
C487       C1782   1.467   1_655  S
O488        H524   0.990       .  S
O489        C491   1.280       .  A
O490        C491   1.270       .  A
C491       C1729   1.457       .  S
O492       Zr493   2.431       .  S
O492        H521   0.990       .  S
Zr493       O496   2.434       .  S
Zr493       O497   2.443       .  S
Zr493       O498   2.356       .  S
O494        C499   1.297       .  A
O495        H512   0.990       .  S
O495        H527   0.990       .  S
O496        H513   0.990       .  S
O497        H517   0.990       .  S
O497        H526   0.990       .  S
O498        C499   1.272       .  A
C499       C1725   1.493       .  S
O500        H519   0.990       .  S
O500        H523   0.990       .  S
O501        H515   0.989       .  S
O501        H522   0.990       .  S
O502        C506   1.279       .  A
O503        C506   1.287       .  A
O504        H514   0.990       .  S
O505        H518   0.990       .  S
C506       C1746   1.479       .  S
Zr529      O2370   2.433       .  S
Zr529       O531   2.466       .  S
Zr529       O532   2.394       .  S
Zr529       O535   2.462       .  S
Zr529       O537   2.367       .  S
Zr529       O538   2.378       .  S
Zr529       O539   2.409       .  S
Zr529       O540   2.371       .  S
O530      Zr2369   2.417   1_554  S
O530        H586   0.990       .  S
O530        H594   0.990       .  S
O531        C551   1.292       .  A
O532        C553   1.277       .  A
O533       Zr543   2.418       .  S
O533        C552   1.280       .  A
O534       Zr542   2.414       .  S
O534        C553   1.277       .  A
O535        C552   1.292       .  A
O536       Zr544   2.495       .  S
O536        C551   1.291       .  A
O537       Zr542   2.396       .  S
O537       Zr544   2.368       .  S
O538       Zr543   2.416       .  S
O538       Zr544   2.389       .  S
O538        H573   0.966       .  S
O539       Zr542   2.404       .  S
O539       Zr559   2.394       .  S
O539        H576   0.966       .  S
O540       Zr543   2.376       .  S
O540       Zr559   2.356       .  S
Zr541       O566   2.439       .  S
Zr541       O560   2.471       .  S
Zr541       O568   2.404       .  S
Zr541       O556   2.395       .  S
Zr541       O547   2.418       .  S
Zr541       O548   2.417       .  S
Zr541       O549   2.370       .  S
Zr541       O550   2.371       .  S
Zr542       O561   2.435       .  S
Zr542       O554   2.436       .  S
Zr542       O555   2.426       .  S
Zr542       O548   2.393       .  S
Zr542       O549   2.381       .  S
Zr543       O545   2.439       .  S
Zr543       O567   2.438       .  S
Zr543       O569   2.451       .  S
Zr543       O547   2.382       .  S
Zr543       O550   2.398       .  S
Zr544       O570   2.439       .  S
Zr544       O571   2.433       .  S
Zr544       O546   2.436       .  S
Zr544       O547   2.439       .  S
Zr544       O548   2.428       .  S
O545        H582   0.990       .  S
O546        H577   0.990       .  S
O546        H591   0.990       .  S
O548        H574   0.966       .  S
O549       Zr559   2.375       .  S
O550       Zr559   2.375       .  S
O550        H575   0.965       .  S
C551       C1697   1.517       .  S
C552       C3541   1.470       .  S
C553       C1822   1.458       .  S
O554        H590   0.990       .  S
O555        C557   1.282       .  A
O556        C557   1.279       .  A
C557       C1705   1.461       .  S
O558      Zr2399   2.439       .  S
O558        H587   0.990       .  S
Zr559       O562   2.437       .  S
Zr559      O2398   2.434       .  S
Zr559      O2403   2.443       .  S
Zr559       O564   2.400       .  S
O560        C565   1.292       .  A
O561        H578   0.990       .  S
O561        H593   0.990       .  S
O562       H2419   0.990       .  S
O563      Zr2399   2.444       .  S
O563        H583   0.990       .  S
O563        H592   0.990       .  S
O564        C565   1.276       .  A
C565       C1714   1.486       .  S
O566        H585   0.990       .  S
O566        H589   0.990       .  S
O567        H581   0.990       .  S
O567        H588   0.990       .  S
O568        C572   1.281       .  A
O569        C572   1.283       .  A
O570        H580   0.990       .  S
O571        H584   0.990       .  S
C572       C1709   1.469       .  S
H579       O2402   0.990       .  S
Zr595       O596   2.417       .  S
Zr595       O597   2.389       .  S
Zr595       O598   2.389       .  S
Zr595       O601   2.414       .  S
Zr595       O603   2.374       .  S
Zr595       O604   2.384       .  S
Zr595       O605   2.418       .  S
Zr595       O606   2.393       .  S
O596        H652   0.990       .  S
O596        H660   0.990       .  S
O597       C2457   1.276       .  A
O598        C619   1.274       .  A
O599       Zr609   2.394       .  S
O599        C618   1.275       .  A
O600       Zr608   2.419       .  S
O600        C619   1.277       .  A
O601        C618   1.271       .  A
O602       Zr610   2.539       .  S
O602        C617   1.302       .  A
O603       Zr608   2.387       .  S
O603      Zr2450   2.319       .  S
O604       Zr609   2.411       .  S
O604      Zr2450   2.363       .  S
O604        H639   0.966       .  S
O605       Zr608   2.419       .  S
O605       Zr625   2.391       .  S
O605        H642   0.967       .  S
O606       Zr609   2.414       .  S
O606       Zr625   2.380       .  S
Zr607      O2472   2.439       .  S
Zr607       O626   2.505       .  S
Zr607       O634   2.408       .  S
Zr607      O2462   2.368       .  S
Zr607       O613   2.418       .  S
Zr607       O615   2.358       .  S
Zr607       O616   2.362       .  S
Zr607      O2454   2.424       .  S
Zr608       O627   2.440       .  S
Zr608      O2460   2.440       .  S
Zr608      O2461   2.464       .  S
Zr608       O615   2.375       .  S
Zr608      O2454   2.391       .  S
Zr609       O611   2.444       .  S
Zr609       O633   2.438       .  S
Zr609       O635   2.443       .  S
Zr609       O613   2.380       .  S
Zr609       O616   2.405       .  S
Zr610       O636   2.434       .  S
Zr610       O637   2.430       .  S
Zr610       O612   2.433       .  S
Zr610       O614   2.424       .  S
Zr610      O2443   2.328   1_554  S
Zr610      O2444   2.368       .  S
Zr610      O2453   2.454       .  S
O611        H648   0.990       .  S
O612        H643   0.990       .  S
O612        H657   0.990       .  S
O613      Zr2450   2.448       .  S
O614      Zr2447   2.418   1_554  S
O614      Zr2448   2.386   1_554  S
O614        H640   0.966       .  S
O615       Zr625   2.383       .  S
O616       Zr625   2.391       .  S
O616        H641   0.962       .  S
C617       O2437   1.275   1_554  A
C617       C3521   1.515       .  S
C618       C1685   1.439       .  S
C619       C1758   1.435       .  S
O620      Zr2448   2.431       .  S
O620        H656   0.990   1_556  S
O621      Zr2448   2.478       .  S
O621        C623   1.290       .  A
O622      Zr2447   2.368       .  S
O622        C623   1.275       .  A
C623       C1693   1.475   1_556  S
O624       Zr625   2.442       .  S
O624        H653   0.989       .  S
Zr625       O628   2.440       .  S
Zr625       O629   2.448       .  S
Zr625       O630   2.404       .  S
O626        C631   1.299       .  A
O627        H644   0.990       .  S
O627        H659   0.990       .  S
O628        H645   0.990       .  S
O629        H649   0.990       .  S
O629        H658   0.989       .  S
O630        C631   1.275       .  A
C631       C1689   1.494       .  S
O632      Zr2447   2.445   1_554  S
O632        H651   0.990       .  S
O632        H655   0.991       .  S
O633        H647   0.990       .  S
O633        H654   0.990       .  S
O634        C638   1.280       .  A
O635        C638   1.284       .  A
O636        H646   0.990       .  S
O637        H650   0.990       .  S
C638       C1710   1.464       .  S
Zr661       O662   2.444       .  S
Zr661       O663   2.432       .  S
Zr661       O664   2.396       .  S
Zr661       O667   2.368       .  S
Zr661       O669   2.368       .  S
Zr661       O670   2.379       .  S
Zr661       O671   2.394       .  S
Zr661       O672   2.407       .  S
O662        H718   0.991       .  S
O662        H726   0.990       .  S
O663        C683   1.283       .  A
O664        C685   1.279       .  A
O665       Zr675   2.531       .  S
O665        C684   1.304       .  A
O666       Zr674   2.473       .  S
O666        C685   1.286       .  A
O667        C684   1.273       .  A
O668       Zr676   2.397       .  S
O668        C683   1.278       .  A
O669       Zr674   2.397       .  S
O669       Zr676   2.394       .  S
O670       Zr675   2.376       .  S
O670       Zr676   2.373       .  S
O670        H705   0.965       .  S
O671       Zr674   2.392       .  S
O671       Zr691   2.401       .  S
O671        H708   0.966       .  S
O672       Zr675   2.399       .  S
O672       Zr691   2.410       .  S
Zr673       O698   2.443       .  S
Zr673       O692   2.441       .  S
Zr673       O700   2.407       .  S
Zr673       O688   2.437       .  S
Zr673       O679   2.409       .  S
Zr673       O680   2.402       .  S
Zr673       O681   2.383       .  S
Zr673       O682   2.394       .  S
Zr674       O693   2.436       .  S
Zr674       O686   2.435       .  S
Zr674       O687   2.434       .  S
Zr674       O680   2.414       .  S
Zr674       O681   2.405       .  S
Zr675       O677   2.434       .  S
Zr675       O699   2.432       .  S
Zr675       O701   2.484       .  S
Zr675       O679   2.413       .  S
Zr675       O682   2.404       .  S
Zr676       O702   2.443       .  S
Zr676       O703   2.440       .  S
Zr676       O678   2.439       .  S
Zr676       O679   2.388       .  S
Zr676       O680   2.377       .  S
O677        H714   0.991       .  S
O678        H709   0.991       .  S
O678        H723   0.990       .  S
O680        H706   0.965       .  S
O681       Zr691   2.377       .  S
O682       Zr691   2.354       .  S
O682        H707   0.965       .  S
C683       C1706   1.465       .  S
C684       C1690   1.503       .  S
C685        C751   1.479       .  S
O686        H722   0.990       .  S
O687        C689   1.284       .  A
O688        C689   1.287       .  A
C689       C1742   1.464       .  S
O690       Zr691   2.434       .  S
O690        H719   0.990       .  S
Zr691       O694   2.437       .  S
Zr691       O695   2.440       .  S
Zr691       O696   2.442       .  S
O692        C697   1.283       .  A
O693        H710   0.990       .  S
O693        H725   0.990       .  S
O694        H711   0.990       .  S
O695        H715   0.990       .  S
O695        H724   0.990       .  S
O696        C697   1.286       .  A
C697       C1726   1.483       .  S
O698        H717   0.990       .  S
O698        H721   0.990       .  S
O699        H713   0.990       .  S
O699        H720   0.990       .  S
O700        C704   1.282       .  A
O701        C704   1.294       .  A
O702        H712   0.990       .  S
O703        H716   0.990       .  S
C704        C770   1.479       .  S
Zr727      O2568   2.451       .  S
Zr727       O729   2.429       .  S
Zr727       O733   2.409       .  S
Zr727      O2570   2.389   1_554  S
Zr727       O736   2.372       .  S
Zr727       O737   2.398       .  S
Zr727       O738   2.406       .  S
Zr727       O735   2.283       .  S
O728      Zr2567   2.444       .  S
O728        H784   0.991       .  S
O728        H792   0.990       .  S
O729        C749   1.284       .  A
O730      Zr2567   2.390       .  S
O730        C751   1.276       .  A
O731       Zr741   2.486       .  S
O731        C750   1.295       .  A
O732      Zr2580   2.480       .  S
O732        C751   1.290       .  A
O733        C750   1.280       .  A
O734       Zr742   2.403       .  S
O734        C749   1.277       .  A
O735       Zr740   2.308       .  S
O735       Zr742   2.304       .  S
O736       Zr741   2.392       .  S
O736       Zr742   2.363       .  S
O736        H771   0.966       .  S
O737       Zr740   2.388       .  S
O737       Zr757   2.399       .  S
O737        H774   0.966       .  S
O738       Zr741   2.396       .  S
O738       Zr757   2.410       .  S
Zr739       O764   2.438       .  S
Zr739       O758   2.459       .  S
Zr739       O766   2.421       .  S
Zr739       O754   2.413       .  S
Zr739       O745   2.408       .  S
Zr739       O746   2.417       .  S
Zr739       O747   2.386       .  S
Zr739       O748   2.378       .  S
Zr740       O759   2.451       .  S
Zr740       O752   2.429       .  S
Zr740       O753   2.431       .  S
Zr740      O2572   2.479   1_554  S
Zr740       O746   2.410       .  S
Zr740       O747   2.414       .  S
Zr741       O743   2.434       .  S
Zr741       O765   2.442       .  S
Zr741       O767   2.475       .  S
Zr741       O745   2.402       .  S
Zr741       O748   2.404       .  S
Zr742       O768   2.447       .  S
Zr742       O769   2.455       .  S
Zr742       O744   2.434       .  S
Zr742       O745   2.405       .  S
Zr742       O746   2.364       .  S
O743        H780   0.990       .  S
O744        H775   0.991       .  S
O744        H789   0.990       .  S
O746        H772   0.964       .  S
O747       Zr757   2.369       .  S
O748       Zr757   2.362       .  S
O748        H773   0.965       .  S
C749       C1694   1.471   1_554  S
C750       C1713   1.489       .  S
O752        H788   0.989       .  S
O753        C755   1.282       .  A
O754        C755   1.282       .  A
C755       C1730   1.447       .  S
O756       Zr757   2.440       .  S
O756        H785   0.991       .  S
Zr757       O760   2.438       .  S
Zr757       O761   2.441       .  S
Zr757       O762   2.450       .  S
O758        C763   1.286       .  A
O759        H776   0.991       .  S
O759        H791   0.990       .  S
O760        H777   0.990       .  S
O761        H781   0.990       .  S
O761        H790   0.990       .  S
O762        C763   1.287       .  A
C763       C1750   1.495       .  S
O764        H783   0.990       .  S
O764        H787   0.990       .  S
O765        H779   0.990       .  S
O765        H786   0.990       .  S
O766        C770   1.285       .  A
O767        C770   1.290       .  A
O768        H778   0.990       .  S
O769        H782   0.991       .  S
Zr793       O794   2.448       .  S
Zr793       O795   2.525       .  S
Zr793       O796   2.414       .  S
Zr793       O799   2.400       .  S
Zr793       O801   2.362       .  S
Zr793       O802   2.396       .  S
Zr793       O803   2.430       .  S
Zr793       O804   2.442       .  S
O794        H850   0.991       .  S
O794        H858   0.990       .  S
O795        C815   1.296       .  A
O796        C817   1.276       .  A
O797       Zr807   2.419       .  S
O797        C816   1.277       .  A
O798       Zr806   2.521       .  S
O798        C817   1.298       .  A
O799        C816   1.271       .  A
O800       Zr808   2.369       .  S
O800        C815   1.267       .  A
O801       Zr806   2.389       .  S
O801       Zr808   2.392       .  S
O802       Zr807   2.424       .  S
O802       Zr808   2.367       .  S
O802        H837   0.966       .  S
O803       Zr806   2.392       .  S
O803       Zr823   2.447       .  S
O803        H840   0.966       .  S
O804       Zr807   2.410       .  S
O804       Zr823   2.434       .  S
Zr805       O830   2.406       .  S
Zr805       O824   2.440       .  S
Zr805       O832   2.426       .  S
Zr805       O820   2.421       .  S
Zr805       O811   2.395       .  S
Zr805       O812   2.414       .  S
Zr805       O813   2.378       .  S
Zr805       O814   2.370       .  S
Zr806       O825   2.434       .  S
Zr806       O818   2.434   1_554  S
Zr806       O819   2.439       .  S
Zr806       O812   2.419       .  S
Zr806       O813   2.437       .  S
Zr807       O809   2.434       .  S
Zr807       O831   2.442       .  S
Zr807       O833   2.455       .  S
Zr807       O811   2.383       .  S
Zr807       O814   2.397       .  S
Zr808       O834   2.430       .  S
Zr808       O835   2.437       .  S
Zr808       O810   2.445       .  S
Zr808       O811   2.357       .  S
Zr808       O812   2.353       .  S
O809        H846   0.991       .  S
O810        H855   0.990       .  S
O810       H2681   0.990       .  S
O812        H838   0.961       .  S
O813       Zr823   2.378       .  S
O814       Zr823   2.356       .  S
O814        H839   0.965       .  S
C815       C1677   1.500       .  S
C816       C1669   1.446       .  S
C817       C1674   1.502       .  S
O818        H854   0.991       .  S
O819        C821   1.288   1_554  A
O820        C821   1.279   1_554  A
C821       C1665   1.461       .  S
O822       Zr823   2.438       .  S
O822        H851   0.991       .  S
Zr823       O826   2.439       .  S
Zr823       O827   2.437       .  S
Zr823       O828   2.528       .  S
O824        C829   1.283       .  A
O825        H842   0.990       .  S
O825        H857   0.990       .  S
O826        H843   0.990       .  S
O827        H847   0.990       .  S
O827        H856   0.990       .  S
O828        C829   1.299       .  A
C829       C1818   1.516       .  S
O830        H849   0.990       .  S
O830        H853   0.990       .  S
O831        H845   0.990       .  S
O831        H852   0.990       .  S
O832        C836   1.267       .  A
O833        C836   1.284       .  A
O834        H844   0.990       .  S
O835       H2688   0.990       .  S
C836       C1702   1.463       .  S
H841       O2650   0.990       .  S
H848       O2675   0.990       .  S
Zr859      O2700   2.439   1_554  S
Zr859       O861   2.481       .  S
Zr859       O862   2.435       .  S
Zr859       O865   2.395   1_554  S
Zr859       O867   2.376       .  S
Zr859       O868   2.393       .  S
Zr859       O869   2.424       .  S
Zr859       O870   2.427   1_554  S
O860      Zr2699   2.440       .  S
O860        H916   0.990       .  S
O860        H924   0.990       .  S
O861        C881   1.291       .  A
O862        C883   1.281       .  A
O863       Zr873   2.433   1_556  S
O863        C882   1.276       .  A
O864       Zr872   2.491       .  S
O864        C883   1.293       .  A
O865        C882   1.269       .  A
O866       Zr874   2.372       .  S
O866        C881   1.275       .  A
O867       Zr872   2.380       .  S
O867       Zr874   2.385       .  S
O868       Zr873   2.395       .  S
O868       Zr874   2.379       .  S
O868        H903   0.965       .  S
O869       Zr872   2.388       .  S
O869       Zr889   2.465   1_554  S
O869        H906   0.966   1_554  S
O870       Zr873   2.389   1_556  S
O870       Zr889   2.423       .  S
Zr871       O896   2.441       .  S
Zr871       O890   2.393       .  S
Zr871       O898   2.417       .  S
Zr871       O886   2.408       .  S
Zr871       O877   2.383       .  S
Zr871       O878   2.413       .  S
Zr871       O879   2.382       .  S
Zr871       O880   2.382       .  S
Zr872       O891   2.434       .  S
Zr872       O884   2.433       .  S
Zr872       O885   2.409       .  S
Zr872       O878   2.440       .  S
Zr872       O879   2.418       .  S
Zr873       O897   2.436       .  S
Zr873      O2715   2.434   1_554  S
Zr873       O899   2.418       .  S
Zr873       O877   2.389       .  S
Zr873       O880   2.388       .  S
Zr874       O900   2.440       .  S
Zr874       O901   2.441       .  S
Zr874       O876   2.443       .  S
Zr874       O877   2.368       .  S
Zr874       O878   2.356       .  S
O875      Zr2713   2.437       .  S
O875       H2752   0.991       .  S
O876        H907   0.990       .  S
O876        H921   0.990       .  S
O878        H904   0.963       .  S
O879       Zr889   2.357   1_554  S
O880       Zr889   2.375   1_554  S
O880        H905   0.966       .  S
C881       C1657   1.477       .  S
C882       C3502   1.462       .  S
C883       C1673   1.509       .  S
O884        H920   0.990       .  S
O885        C887   1.275       .  A
O886        C887   1.268       .  A
C887       C1653   1.445       .  S
O888      Zr2729   2.431       .  S
O888        H917   0.990       .  S
Zr889      O2728   2.435       .  S
Zr889      O2732   2.437       .  S
Zr889      O2733   2.441       .  S
Zr889       O894   2.543       .  S
O890        C895   1.278       .  A
O891        H908   0.990       .  S
O891        H923   0.990       .  S
O892      Zr2729   2.435       .  S
O892        H909   0.990       .  S
O893      Zr2729   2.439       .  S
O893        H913   0.991       .  S
O893        H922   0.990       .  S
O894        C895   1.304   1_556  A
C895       C1806   1.520   1_545  S
O896        H915   0.990       .  S
O896        H919   0.990       .  S
O897        H911   0.990   1_554  S
O897        H918   0.991       .  S
O898        C902   1.282       .  A
O899        C902   1.281       .  A
O900        H910   0.991       .  S
O901        H914   0.990       .  S
C902       C1738   1.450       .  S
H912       O2715   0.990       .  S
Zr925       O926   2.441       .  S
Zr925       O927   2.451       .  S
Zr925       O928   2.392       .  S
Zr925       O931   2.407       .  S
Zr925       O933   2.365       .  S
Zr925       O934   2.378       .  S
Zr925       O935   2.407       .  S
Zr925       O936   2.405       .  S
O926        H982   0.990       .  S
O926        H990   0.991       .  S
O927        C947   1.288       .  A
O928        C949   1.277       .  A
O929       Zr939   2.427       .  S
O929        C948   1.282       .  A
O930       Zr938   2.469       .  S
O930        C949   1.289       .  A
O931        C948   1.281       .  A
O932       Zr940   2.404       .  S
O932        C947   1.281       .  A
O933       Zr938   2.360       .  S
O933       Zr940   2.374       .  S
O934       Zr939   2.377       .  S
O934       Zr940   2.371       .  S
O934        H969   0.965       .  S
O935       Zr938   2.387       .  S
O935       Zr955   2.412       .  S
O935        H972   0.966       .  S
O936       Zr939   2.397       .  S
O936       Zr955   2.432       .  S
Zr937       O962   2.412       .  S
Zr937       O956   2.404       .  S
Zr937       O964   2.441       .  S
Zr937       O952   2.427       .  S
Zr937       O943   2.390       .  S
Zr937       O944   2.400       .  S
Zr937       O945   2.380       .  S
Zr937       O946   2.371       .  S
Zr938       O957   2.439       .  S
Zr938       O950   2.437       .  S
Zr938       O951   2.399       .  S
Zr938       O944   2.404       .  S
Zr938       O945   2.399       .  S
Zr939       O941   2.433       .  S
Zr939       O963   2.443       .  S
Zr939       O965   2.419       .  S
Zr939       O943   2.394       .  S
Zr939       O946   2.386       .  S
Zr940       O966   2.440       .  S
Zr940       O967   2.438       .  S
Zr940       O942   2.437       .  S
Zr940       O943   2.395       .  S
Zr940       O944   2.382       .  S
O941        H978   0.990       .  S
O942        H973   0.990       .  S
O942        H987   0.990       .  S
O944        H970   0.966       .  S
O945       Zr955   2.354       .  S
O946       Zr955   2.328       .  S
O946        H971   0.953       .  S
C947       C1649   1.471       .  S
C948       C1641   1.461       .  S
C949       C1645   1.475       .  S
O950        H986   0.990       .  S
O951        C953   1.281       .  A
O952        C953   1.286       .  A
C953       C1637   1.459   1_655  S
O954       Zr955   2.437       .  S
O954        H983   0.990       .  S
Zr955       O958   2.440       .  S
Zr955       O959   2.439       .  S
Zr955       O960   2.510       .  S
O956        C961   1.280       .  A
O957        H974   0.990   1_655  S
O957        H989   0.990       .  S
O958        H975   0.990   1_655  S
O959        H979   0.990       .  S
O959        H988   0.990       .  S
O960        C961   1.299       .  A
C961       C1774   1.493       .  S
O962        H981   0.988       .  S
O962        H985   0.990       .  S
O963        H977   0.990       .  S
O963        H984   0.991       .  S
O964        C968   1.290       .  A
O965        C968   1.282       .  A
O966        H976   0.990       .  S
O967        H980   0.990       .  S
C968       C1722   1.476       .  S
Zr991       O992   2.441       .  S
Zr991       O993   2.505       .  S
Zr991       O994   2.431       .  S
Zr991       O997   2.386       .  S
Zr991       O999   2.373       .  S
Zr991      O1000   2.373       .  S
Zr991      O1001   2.426       .  S
Zr991      O1002   2.424       .  S
O992       H1048   0.990       .  S
O992       H1056   0.990       .  S
O993       C1013   1.299       .  A
O994       C1015   1.282       .  A
O995      Zr1005   2.457       .  S
O995       C1014   1.285       .  A
O996      Zr1004   2.442       .  S
O996       C1015   1.284       .  A
O997       C1014   1.277       .  A
O998      Zr1006   2.388       .  S
O998       C1013   1.274       .  A
O999      Zr1004   2.398       .  S
O999      Zr1006   2.368       .  S
O1000     Zr1005   2.382       .  S
O1000     Zr1006   2.402       .  S
O1000      H1035   0.965       .  S
O1001     Zr1004   2.391       .  S
O1001     Zr1021   2.442       .  S
O1001      H1038   0.966       .  S
O1002     Zr1005   2.381       .  S
O1002     Zr1021   2.433       .  S
Zr1003     O1028   2.434       .  S
Zr1003     O1022   2.420       .  S
Zr1003     O1030   2.425       .  S
Zr1003     O1018   2.409       .  S
Zr1003     O1009   2.359       .  S
Zr1003     O1010   2.420       .  S
Zr1003     O1011   2.372       .  S
Zr1003     O1012   2.384       .  S
Zr1004     O1023   2.432       .  S
Zr1004     O1016   2.438   1_655  S
Zr1004     O1017   2.420   1_655  S
Zr1004     O1010   2.404       .  S
Zr1004     O1011   2.408       .  S
Zr1005     O1007   2.432       .  S
Zr1005     O1029   2.441       .  S
Zr1005     O1031   2.425       .  S
Zr1005     O1009   2.380       .  S
Zr1005     O1012   2.398       .  S
Zr1006     O1032   2.432       .  S
Zr1006     O1033   2.436       .  S
Zr1006     O1008   2.435       .  S
Zr1006     O1009   2.351       .  S
Zr1006     O1010   2.384       .  S
O1007      H1044   0.990       .  S
O1008      H1039   0.990       .  S
O1008      H1053   0.990       .  S
O1010      H1036   0.964       .  S
O1011     Zr1021   2.371       .  S
O1012     Zr1021   2.373       .  S
O1012      H1037   0.965       .  S
C1013      C1629   1.487       .  S
C1014      C1633   1.475       .  S
C1015      C1646   1.472       .  S
O1016      H1052   0.990   1_455  S
O1017      C1019   1.280       .  A
O1018      C1019   1.278   1_655  A
C1019      C1625   1.442       .  S
O1020     Zr1021   2.441       .  S
O1020      H1049   0.990       .  S
Zr1021     O1024   2.434       .  S
Zr1021     O1025   2.439       .  S
Zr1021     O1026   2.517       .  S
O1022      C1027   1.279       .  A
O1023      H1040   0.990   1_655  S
O1023      H1055   0.990   1_655  S
O1024      H1041   0.990       .  S
O1025      H1045   0.990       .  S
O1025      H1054   0.990       .  S
O1026      C1027   1.298       .  A
C1027      C1754   1.518       .  S
O1028      H1047   0.990       .  S
O1028      H1051   0.989       .  S
O1029      H1043   0.990       .  S
O1029      H1050   0.990       .  S
O1030      C1034   1.287       .  A
O1031      C1034   1.280       .  A
O1032      H1042   0.990       .  S
O1033      H1046   0.989       .  S
C1034      C1686   1.445       .  S
Zr1057     O1058   2.437   1_556  S
Zr1057     O1059   2.423       .  S
Zr1057     O1060   2.424   1_556  S
Zr1057     O2903   2.432       .  S
Zr1057     O2905   2.381       .  S
Zr1057     O2906   2.392       .  S
Zr1057     O2907   2.400       .  S
Zr1057     O2908   2.377       .  S
O1058      H1114   0.989       .  S
O1058      H1122   0.990       .  S
O1059      C1079   1.279       .  A
O1060      C1081   1.283       .  A
O1061     Zr1071   2.409       .  S
O1061      C1080   1.279       .  A
O1062     Zr2910   2.452   1_554  S
O1062      C1081   1.288       .  A
O1063     Zr2897   2.417       .  S
O1063      C1080   1.285       .  A
O1064     Zr1072   2.474       .  S
O1064      C2919   1.293       .  A
O1065     Zr1070   2.409       .  S
O1065     Zr1072   2.360       .  S
O1065     Zr2897   2.378       .  S
O1066     Zr1071   2.404       .  S
O1066     Zr1072   2.370       .  S
O1066     Zr2897   2.390       .  S
O1066      H1101   0.966       .  S
O1067     Zr1070   2.417       .  S
O1067     Zr1087   2.392       .  S
O1067     Zr2897   2.401       .  S
O1067      H2944   0.966       .  S
O1068     Zr1071   2.392       .  S
O1068     Zr1087   2.350       .  S
O1068     Zr2897   2.376       .  S
Zr1069     O1094   2.438       .  S
Zr1069     O1088   2.433       .  S
Zr1069     O1096   2.386       .  S
Zr1069     O1084   2.361       .  S
Zr1069     O1075   2.397       .  S
Zr1069     O1076   2.404       .  S
Zr1069     O1077   2.368       .  S
Zr1069     O1078   2.365       .  S
Zr1070     O1082   2.435       .  S
Zr1070     O2929   2.437       .  S
Zr1070     O1083   2.511       .  S
Zr1070     O2902   2.461       .  S
Zr1070     O1076   2.397       .  S
Zr1070     O1077   2.367       .  S
Zr1071     O1073   2.435       .  S
Zr1071     O1095   2.436       .  S
Zr1071     O1097   2.458       .  S
Zr1071     O1075   2.376       .  S
Zr1071     O1078   2.384       .  S
Zr1072     O1098   2.441       .  S
Zr1072     O1099   2.436       .  S
Zr1072     O1074   2.435       .  S
Zr1072     O1075   2.419       .  S
Zr1072     O1076   2.426       .  S
O1073      H1110   0.990       .  S
O1074      H1105   0.990       .  S
O1074      H1119   0.990       .  S
O1076      H1102   0.965       .  S
O1077     Zr1087   2.366       .  S
O1078     Zr1087   2.387       .  S
O1078      H1103   0.966       .  S
C1079      O2904   1.293       .  A
C1079      C1678   1.489   1_556  S
C1080      C1661   1.448       .  S
C1081      C1147   1.473       .  S
O1082      H2958   0.990       .  S
O1083      C1085   1.300       .  A
O1084      C1085   1.272       .  A
C1085      C1630   1.491       .  S
O1086     Zr1087   2.433       .  S
O1086      H1115   0.990       .  S
Zr1087     O1090   2.430       .  S
Zr1087     O1091   2.434       .  S
Zr1087     O1092   2.386       .  S
O1088      C1093   1.283       .  A
O1089     Zr2910   2.438       .  S
O1089      H1106   0.990       .  S
O1089      H1121   0.990       .  S
O1090      H1107   0.990       .  S
O1091      H1111   0.990       .  S
O1091      H1120   0.990       .  S
O1092      C1093   1.277       .  A
C1093      C1642   1.466       .  S
O1094      H1113   0.990       .  S
O1094      H1117   0.990       .  S
O1095      H1109   0.990       .  S
O1095      H1116   0.990       .  S
O1096      C1100   1.276       .  A
O1097      C1100   1.286       .  A
O1098      H1108   0.990       .  S
O1099      H1112   0.990       .  S
C1100      C1166   1.463       .  S
H1104      O2907   0.965       .  S
H1118      O2922   0.990       .  S
Zr1123     O1124   2.438       .  S
Zr1123     O1125   2.407       .  S
Zr1123     O1126   2.415       .  S
Zr1123     O1129   2.417       .  S
Zr1123     O1131   2.378       .  S
Zr1123     O1132   2.386       .  S
Zr1123     O1133   2.396       .  S
Zr1123     O1134   2.395       .  S
O1124      H1180   0.990       .  S
O1124      H1188   0.990       .  S
O1125      C1145   1.278       .  A
O1126      C1147   1.283       .  A
O1127     Zr1137   2.395       .  S
O1127      C1146   1.278       .  A
O1128     Zr1136   2.456       .  S
O1128      C1147   1.287       .  A
O1129      C1146   1.283       .  A
O1130     Zr1138   2.443       .  S
O1130      C1145   1.286       .  A
O1131     Zr1136   2.388       .  S
O1131     Zr1138   2.365       .  S
O1132     Zr1137   2.390       .  S
O1132     Zr1138   2.363       .  S
O1132      H1167   0.966       .  S
O1133     Zr1136   2.400       .  S
O1133     Zr1153   2.399       .  S
O1133      H1170   0.966       .  S
O1134     Zr1137   2.402       .  S
O1134     Zr1153   2.391       .  S
Zr1135     O1160   2.444       .  S
Zr1135     O1154   2.424       .  S
Zr1135     O1162   2.414       .  S
Zr1135     O1150   2.394       .  S
Zr1135     O1141   2.394       .  S
Zr1135     O1142   2.407       .  S
Zr1135     O1143   2.376       .  S
Zr1135     O1144   2.368       .  S
Zr1136     O1155   2.434       .  S
Zr1136     O1148   2.433       .  S
Zr1136     O1149   2.452       .  S
Zr1136     O1142   2.404       .  S
Zr1136     O1143   2.389       .  S
Zr1137     O1139   2.436       .  S
Zr1137     O1161   2.436       .  S
Zr1137     O1163   2.434       .  S
Zr1137     O1141   2.388       .  S
Zr1137     O1144   2.380       .  S
Zr1138     O1164   2.436       .  S
Zr1138     O1165   2.437       .  S
Zr1138     O1140   2.439       .  S
Zr1138     O1141   2.406       .  S
Zr1138     O1142   2.405       .  S
O1139      H1176   0.990       .  S
O1140      H1171   0.991       .  S
O1140      H1185   0.990       .  S
O1142      H1168   0.966       .  S
O1143     Zr1153   2.379       .  S
O1144     Zr1153   2.372       .  S
O1144      H1169   0.966       .  S
C1145      C1658   1.468       .  S
C1146      C1670   1.452       .  S
O1148      H1184   0.990       .  S
O1149      C1151   1.287       .  A
O1150      C1151   1.279       .  A
C1151      C1650   1.472       .  S
O1152     Zr1153   2.437       .  S
O1152      H1181   0.990       .  S
Zr1153     O1156   2.431       .  S
Zr1153     O1157   2.442       .  S
Zr1153     O1158   2.423       .  S
O1154      C1159   1.283       .  A
O1155      H1172   0.990       .  S
O1155      H1187   0.990       .  S
O1156      H1173   0.990       .  S
O1157      H1177   0.990       .  S
O1157      H1186   0.990       .  S
O1158      C1159   1.282       .  A
C1159      C1634   1.469       .  S
O1160      H1179   0.990       .  S
O1160      H1183   0.990       .  S
O1161      H1175   0.990       .  S
O1161      H1182   0.990       .  S
O1162      C1166   1.283       .  A
O1163      C1166   1.282       .  A
O1164      H1174   0.990       .  S
O1165      H1178   0.990       .  S
Zr1189     O1190   2.441   1_545  S
Zr1189     O1191   2.406       .  S
Zr1189     O1192   2.408       .  S
Zr1189     O1195   2.412   1_545  S
Zr1189     O1197   2.378       .  S
Zr1189     O1198   2.385       .  S
Zr1189     O1199   2.419       .  S
Zr1189     O1200   2.404       .  S
O1190      H1246   0.991       .  S
O1190      H1254   0.990   1_565  S
O1191      C1211   1.279       .  A
O1192      C1213   1.280       .  A
O1193     Zr1203   2.397   1_565  S
O1193      C1212   1.275       .  A
O1194     Zr1202   2.414       .  S
O1194      C1213   1.273       .  A
O1195      C1212   1.275       .  A
O1196     Zr1204   2.525       .  S
O1196      C1211   1.299       .  A
O1197     Zr1202   2.398       .  S
O1197     Zr1204   2.352       .  S
O1198     Zr1203   2.418       .  S
O1198     Zr1204   2.368       .  S
O1198      H1233   0.967       .  S
O1199     Zr1202   2.412       .  S
O1199     Zr1219   2.359       .  S
O1199      H1236   0.961       .  S
O1200     Zr1203   2.404       .  S
O1200     Zr1219   2.386       .  S
Zr1201     O1226   2.437       .  S
Zr1201     O1220   2.473       .  S
Zr1201     O1228   2.464       .  S
Zr1201     O1216   2.397       .  S
Zr1201     O1207   2.414       .  S
Zr1201     O1208   2.430       .  S
Zr1201     O1209   2.358       .  S
Zr1201     O1210   2.367       .  S
Zr1202     O1221   2.438       .  S
Zr1202     O1214   2.434       .  S
Zr1202     O1215   2.426       .  S
Zr1202     O1208   2.395       .  S
Zr1202     O1209   2.364       .  S
Zr1203     O1205   2.441   1_545  S
Zr1203     O1227   2.440   1_545  S
Zr1203     O1229   2.456       .  S
Zr1203     O1207   2.388       .  S
Zr1203     O1210   2.396       .  S
Zr1204     O1230   2.434       .  S
Zr1204     O1231   2.432       .  S
Zr1204     O1206   2.434       .  S
Zr1204     O1207   2.452       .  S
Zr1204     O1208   2.430       .  S
O1205      H1242   0.990       .  S
O1206      H1237   0.991       .  S
O1206      H1251   0.990       .  S
O1208      H1234   0.966       .  S
O1209     Zr1219   2.361       .  S
O1210     Zr1219   2.358       .  S
O1210      H1235   0.962       .  S
C1211      C1734   1.523       .  S
C1212      C1801   1.434       .  S
C1213      C1654   1.455       .  S
O1214      H1250   0.990       .  S
O1215      C1217   1.281       .  A
O1216      C1217   1.282       .  A
C1217      C1613   1.457       .  S
O1218     Zr1219   2.441       .  S
O1218      H1247   0.990       .  S
Zr1219     O1222   2.438       .  S
Zr1219     O1223   2.441       .  S
Zr1219     O1224   2.422       .  S
O1220      C1225   1.292       .  A
O1221      H1238   0.989       .  S
O1221      H1253   0.989       .  S
O1222      H1239   0.990       .  S
O1223      H1243   0.990       .  S
O1223      H1252   0.990       .  S
O1224      C1225   1.283       .  A
C1225      C1622   1.491       .  S
O1226      H1245   0.990       .  S
O1226      H1249   0.991       .  S
O1227      H1241   0.990       .  S
O1227      H1248   0.990       .  S
O1228      C1232   1.291       .  A
O1229      C1232   1.287       .  A
O1230      H1240   0.990       .  S
O1231      H1244   0.990       .  S
C1232      C1618   1.489       .  S
Zr1255     O1256   2.441       .  S
Zr1255     O1257   2.448       .  S
Zr1255     O1258   2.415       .  S
Zr1255     O1261   2.474       .  S
Zr1255     O1263   2.374       .  S
Zr1255     O1264   2.391       .  S
Zr1255     O1265   2.406       .  S
Zr1255     O1266   2.369       .  S
O1256      H1312   0.990       .  S
O1256      H1320   0.991       .  S
O1257      C1277   1.288   1_545  A
O1258      C1279   1.283       .  A
O1259     Zr1269   2.410   1_565  S
O1259      C1278   1.278   1_565  A
O1260     Zr1268   2.410       .  S
O1260      C1279   1.280       .  A
O1261      C1278   1.295       .  A
O1262     Zr1270   2.518       .  S
O1262      C1277   1.298   1_545  A
O1263     Zr1268   2.395       .  S
O1263     Zr1270   2.344       .  S
O1264     Zr1269   2.421       .  S
O1264     Zr1270   2.386       .  S
O1264      H1299   0.966   1_545  S
O1265     Zr1268   2.404       .  S
O1265     Zr1285   2.377       .  S
O1265      H1302   0.966       .  S
O1266     Zr1269   2.390       .  S
O1266     Zr1285   2.351       .  S
Zr1267     O1292   2.439       .  S
Zr1267     O1286   2.472       .  S
Zr1267     O1294   2.432       .  S
Zr1267     O1282   2.447       .  S
Zr1267     O1273   2.429       .  S
Zr1267     O1274   2.423       .  S
Zr1267     O1275   2.381       .  S
Zr1267     O1276   2.370       .  S
Zr1268     O1287   2.435       .  S
Zr1268     O1280   2.434       .  S
Zr1268     O1281   2.446       .  S
Zr1268     O1274   2.391       .  S
Zr1268     O1275   2.382       .  S
Zr1269     O1271   2.439   1_545  S
Zr1269     O1293   2.438   1_545  S
Zr1269     O1295   2.466       .  S
Zr1269     O1273   2.380       .  S
Zr1269     O1276   2.377       .  S
Zr1270     O1296   2.439   1_545  S
Zr1270     O1297   2.434   1_545  S
Zr1270     O1272   2.437       .  S
Zr1270     O1273   2.449       .  S
Zr1270     O1274   2.433       .  S
O1271      H1308   0.990       .  S
O1272      H1303   0.990       .  S
O1272      H1317   0.990       .  S
O1274      H1300   0.966       .  S
O1275     Zr1285   2.382       .  S
O1276     Zr1285   2.375       .  S
O1276      H1301   0.964       .  S
C1277      C1718   1.533       .  S
C1278      C1778   1.472   1_545  S
C1279      C1638   1.456       .  S
O1280      H1316   0.990       .  S
O1281      C1283   1.287       .  A
O1282      C1283   1.286       .  A
C1283      C1609   1.487       .  S
O1284     Zr1285   2.435       .  S
O1284      H1313   0.990       .  S
Zr1285     O1288   2.435       .  S
Zr1285     O1289   2.439       .  S
Zr1285     O1290   2.374       .  S
O1286      C1291   1.291       .  A
O1287      H1304   0.990       .  S
O1287      H1319   0.990       .  S
O1288      H1305   0.990       .  S
O1289      H1309   0.990       .  S
O1289      H1318   0.990       .  S
O1290      C1291   1.274       .  A
C1291      C1605   1.472       .  S
O1292      H1311   0.990       .  S
O1292      H1315   0.990       .  S
O1293      H1307   0.990       .  S
O1293      H1314   0.990       .  S
O1294      C1298   1.284       .  A
O1295      C1298   1.287       .  A
O1296      H1306   0.990       .  S
O1297      H1310   0.990       .  S
C1298      C1617   1.484       .  S
Zr1321     O3162   2.440       .  S
Zr1321     O1323   2.370       .  S
Zr1321     O1324   2.412       .  S
Zr1321     O1327   2.423       .  S
Zr1321     O1329   2.383       .  S
Zr1321     O1330   2.391       .  S
Zr1321     O1331   2.407       .  S
Zr1321     O1332   2.397       .  S
O1322     Zr3161   2.435   1_554  S
O1322      H1378   0.990   1_554  S
O1322      H1386   0.990       .  S
O1323      C1343   1.266       .  A
O1324      C1345   1.284       .  A
O1325     Zr1335   2.397       .  S
O1325      C1344   1.265       .  A
O1326     Zr1334   2.415       .  S
O1326      C1345   1.280       .  A
O1327      C1344   1.279       .  A
O1328     Zr1336   2.582       .  S
O1328      C1343   1.307       .  A
O1329     Zr1334   2.390       .  S
O1329     Zr1336   2.335       .  S
O1330     Zr1335   2.398       .  S
O1330     Zr1336   2.336       .  S
O1330      H1365   0.966       .  S
O1331     Zr1334   2.418       .  S
O1331     Zr1351   2.392       .  S
O1331      H1368   0.966       .  S
O1332     Zr1335   2.440       .  S
O1332     Zr1351   2.389       .  S
Zr1333     O1358   2.441       .  S
Zr1333     O1352   2.534       .  S
Zr1333     O1360   2.451       .  S
Zr1333     O1348   2.374       .  S
Zr1333     O1340   2.438       .  S
Zr1333     O1341   2.373       .  S
Zr1333     O1342   2.356       .  S
Zr1333     O1339   2.359       .  S
Zr1334     O1353   2.431       .  S
Zr1334     O1346   2.436       .  S
Zr1334     O1347   2.457       .  S
Zr1334     O1340   2.394       .  S
Zr1334     O1341   2.381       .  S
Zr1335     O1337   2.450       .  S
Zr1335     O1359   2.427       .  S
Zr1335     O1361   2.447       .  S
Zr1335     O1342   2.393       .  S
Zr1335     O1339   2.281       .  S
Zr1336     O1362   2.445       .  S
Zr1336     O1363   2.435       .  S
Zr1336     O1338   2.448       .  S
Zr1336     O1340   2.405       .  S
Zr1336     O1339   2.386       .  S
O1337      H1374   0.990       .  S
O1338      H1369   0.991       .  S
O1338      H1383   0.990       .  S
O1340      H1366   0.963       .  S
O1341     Zr1351   2.381       .  S
O1342     Zr1351   2.382       .  S
O1342      H1367   0.963       .  S
C1343      C1698   1.528       .  S
C1344      C3665   1.443       .  S
C1345      C1666   1.458       .  S
O1346      H1382   0.990       .  S
O1347      C1349   1.286       .  A
O1348      C1349   1.275       .  A
C1349      C1593   1.456       .  S
O1350     Zr3191   2.441   1_554  S
O1350      H1379   0.990       .  S
Zr1351     O1354   2.438       .  S
Zr1351     O3190   2.434       .  S
Zr1351     O3195   2.441       .  S
Zr1351     O1356   2.415       .  S
O1352      C1357   1.303       .  A
O1353      H1370   0.990       .  S
O1353      H1385   0.990       .  S
O1354      H3211   0.990       .  S
O1355     Zr3191   2.442   1_554  S
O1355      H1375   0.990       .  S
O1355      H1384   0.990       .  S
O1356      C1357   1.277       .  A
C1357      C1602   1.505       .  S
O1358      H1377   0.990       .  S
O1358      H1381   0.991       .  S
O1359      H1373   0.990       .  S
O1359      H1380   0.990       .  S
O1360      C1364   1.288       .  A
O1361      C1364   1.284       .  A
O1362      H1372   0.991       .  S
O1363      H1376   0.990       .  S
C1364      C1598   1.487       .  S
H1371      O3194   0.990       .  S
Zr1387     O1388   2.442       .  S
Zr1387     O1389   2.455       .  S
Zr1387     O1390   2.418       .  S
Zr1387     O1393   2.423       .  S
Zr1387     O1395   2.376       .  S
Zr1387     O1396   2.386       .  S
Zr1387     O1397   2.412       .  S
Zr1387     O1398   2.394       .  S
O1388      H1444   0.990       .  S
O1388      H1452   0.991       .  S
O1389      C1409   1.288       .  A
O1390      C1411   1.282       .  A
O1391     Zr1401   2.444       .  S
O1391      C1410   1.284       .  A
O1392     Zr1400   2.436       .  S
O1392      C1411   1.280       .  A
O1393      C1410   1.284       .  A
O1394     Zr1402   2.480       .  S
O1394      C3249   1.287   1_554  A
O1395     Zr1400   2.401       .  S
O1395     Zr3242   2.379       .  S
O1396     Zr1401   2.426       .  S
O1396     Zr3242   2.391       .  S
O1396      H1431   0.973       .  S
O1397     Zr1400   2.406       .  S
O1397     Zr1417   2.365       .  S
O1397      H1434   1.030       .  S
O1398     Zr1401   2.391       .  S
O1398     Zr1417   2.372       .  S
Zr1399     O3264   2.432       .  S
Zr1399     O1418   2.472       .  S
Zr1399     O1426   2.411       .  S
Zr1399     O3254   2.374       .  S
Zr1399     O1405   2.414       .  S
Zr1399     O1407   2.363       .  S
Zr1399     O1408   2.377       .  S
Zr1399     O3246   2.424       .  S
Zr1400     O1419   2.439       .  S
Zr1400     O3252   2.434       .  S
Zr1400     O3253   2.463       .  S
Zr1400     O1407   2.378       .  S
Zr1400     O3246   2.395       .  S
Zr1401     O1403   2.440       .  S
Zr1401     O1425   2.438       .  S
Zr1401     O1427   2.492       .  S
Zr1401     O1405   2.390       .  S
Zr1401     O1408   2.404       .  S
Zr1402     O1428   2.440       .  S
Zr1402     O1429   2.434       .  S
Zr1402     O1404   2.439       .  S
Zr1402     O1406   2.426   1_554  S
Zr1402     O3235   2.385   1_554  S
Zr1402     O3236   2.391   1_554  S
Zr1402     O3245   2.434   1_554  S
O1403      H1440   0.990       .  S
O1404      H1435   0.990       .  S
O1404      H1449   0.990       .  S
O1405     Zr3242   2.438       .  S
O1406     Zr3239   2.421       .  S
O1406     Zr3240   2.401       .  S
O1406      H1432   0.966   1_556  S
O1407     Zr1417   2.365       .  S
O1408     Zr1417   2.357       .  S
O1408      H1433   0.964       .  S
C1409      O3234   1.291       .  A
C1409      C1682   1.519       .  S
C1410      C1761   1.468       .  S
C1411      C1626   1.457       .  S
O1412     Zr3240   2.431   1_554  S
O1412      H1448   0.990   1_554  S
O1413     Zr3240   2.457       .  S
O1413      C1415   1.286       .  A
O1414     Zr3239   2.372       .  S
O1414      C1415   1.276       .  A
C1415      C1589   1.466       .  S
O1416     Zr1417   2.437       .  S
O1416      H1445   0.990       .  S
Zr1417     O1420   2.434       .  S
Zr1417     O1421   2.441       .  S
Zr1417     O1422   2.404       .  S
O1418      C1423   1.289       .  A
O1419      H1436   0.990       .  S
O1419      H1451   0.990       .  S
O1420      H1437   0.990       .  S
O1421      H1441   0.990       .  S
O1421      H1450   0.990       .  S
O1422      C1423   1.280       .  A
C1423      C1586   1.492       .  S
O1424     Zr3239   2.440   1_554  S
O1424      H1443   0.990       .  S
O1424      H1447   0.990       .  S
O1425      H1439   0.990       .  S
O1425      H1446   0.990       .  S
O1426      C1430   1.281       .  A
O1427      C1430   1.294       .  A
O1428      H1438   0.990       .  S
O1429      H1442   0.990       .  S
C1430      C1597   1.485       .  S
Zr1453     O1454   2.444       .  S
Zr1453     O1455   2.425       .  S
Zr1453     O1456   2.372       .  S
Zr1453     O1459   2.374       .  S
Zr1453     O1461   2.360       .  S
Zr1453     O1462   2.376       .  S
Zr1453     O1463   2.397       .  S
Zr1453     O1464   2.399       .  S
O1454      H1510   0.991       .  S
O1454      H1518   0.990       .  S
O1455      C1475   1.282       .  A
O1456      C1477   1.275       .  A
O1457     Zr1467   2.468       .  S
O1457      C1476   1.291       .  A
O1458     Zr1466   2.500       .  S
O1458      C1477   1.294       .  A
O1459      C1476   1.274       .  A
O1460     Zr1468   2.402       .  S
O1460      C1475   1.278       .  A
O1461     Zr1466   2.376       .  S
O1461     Zr1468   2.376       .  S
O1462     Zr1467   2.393       .  S
O1462     Zr1468   2.367       .  S
O1462      H1497   0.965       .  S
O1463     Zr1466   2.393       .  S
O1463     Zr1483   2.393       .  S
O1463      H1500   0.966       .  S
O1464     Zr1467   2.401       .  S
O1464     Zr1483   2.410       .  S
Zr1465     O1490   2.451       .  S
Zr1465     O1484   2.443       .  S
Zr1465     O1492   2.443       .  S
Zr1465     O1480   2.412       .  S
Zr1465     O1471   2.395       .  S
Zr1465     O1472   2.411       .  S
Zr1465     O1473   2.391       .  S
Zr1465     O1474   2.374       .  S
Zr1466     O1485   2.439       .  S
Zr1466     O1478   2.436       .  S
Zr1466     O1479   2.428       .  S
Zr1466     O1472   2.429       .  S
Zr1466     O1473   2.406       .  S
Zr1467     O1469   2.432       .  S
Zr1467     O1491   2.441       .  S
Zr1467     O1493   2.468       .  S
Zr1467     O1471   2.405       .  S
Zr1467     O1474   2.404       .  S
Zr1468     O1494   2.440       .  S
Zr1468     O1495   2.438       .  S
Zr1468     O1470   2.440       .  S
Zr1468     O1471   2.396       .  S
Zr1468     O1472   2.369       .  S
O1469      H1506   0.990       .  S
O1470      H1501   0.990       .  S
O1470      H1515   0.990       .  S
O1472      H1498   0.965       .  S
O1473     Zr1483   2.370       .  S
O1474     Zr1483   2.372       .  S
O1474      H1499   0.965       .  S
C1475      C1614   1.463       .  S
C1476      C1606   1.468       .  S
C1477      C1562   1.486       .  S
O1478      H1514   0.990       .  S
O1479      C1481   1.283       .  A
O1480      C1481   1.282       .  A
C1481      C1594   1.446       .  S
O1482     Zr1483   2.433       .  S
O1482      H1511   0.990       .  S
Zr1483     O1486   2.437       .  S
Zr1483     O1487   2.436       .  S
Zr1483     O1488   2.432       .  S
O1484      C1489   1.284       .  A
O1485      H1502   0.990       .  S
O1485      H1517   0.990       .  S
O1486      H1503   0.990       .  S
O1487      H1507   0.990       .  S
O1487      H1516   0.990       .  S
O1488      C1489   1.284       .  A
C1489      C1585   1.481       .  S
O1490      H1509   0.990       .  S
O1490      H1513   0.989       .  S
O1491      H1505   0.990       .  S
O1491      H1512   0.990       .  S
O1492      C1496   1.291       .  A
O1493      C1496   1.288       .  A
O1494      H1504   0.990       .  S
O1495      H1508   0.991       .  S
C1496      C1543   1.499       .  S
Zr1519     O3360   2.440   1_554  S
Zr1519     O1521   2.430       .  S
Zr1519     O1525   2.379       .  S
Zr1519     O3362   2.377   1_554  S
Zr1519     O1527   2.371       .  S
Zr1519     O1528   2.371       .  S
Zr1519     O1529   2.398       .  S
Zr1519     O1530   2.401       .  S
O1520     Zr3359   2.442       .  S
O1520      H1576   0.990       .  S
O1520      H1584   0.990       .  S
O1521      C1541   1.283       .  A
O1522     Zr3359   2.382       .  S
O1522      C1543   1.274       .  A
O1523     Zr1533   2.527       .  S
O1523      C1542   1.303       .  A
O1524     Zr3372   2.522       .  S
O1524      C1543   1.299       .  A
O1525      C1542   1.274       .  A
O1526     Zr1534   2.403       .  S
O1526      C1541   1.278       .  A
O1527     Zr1532   2.391       .  S
O1527     Zr1534   2.387       .  S
O1528     Zr1533   2.383       .  S
O1528     Zr1534   2.375       .  S
O1528      H1563   0.966       .  S
O1529     Zr1532   2.398       .  S
O1529     Zr1549   2.399       .  S
O1529      H1566   0.966       .  S
O1530     Zr1533   2.391       .  S
O1530     Zr1549   2.414       .  S
Zr1531     O1556   2.452       .  S
Zr1531     O1550   2.433       .  S
Zr1531     O1558   2.417       .  S
Zr1531     O1546   2.418       .  S
Zr1531     O1537   2.400       .  S
Zr1531     O1538   2.401       .  S
Zr1531     O1539   2.383       .  S
Zr1531     O1540   2.386       .  S
Zr1532     O1551   2.434       .  S
Zr1532     O1544   2.435       .  S
Zr1532     O1545   2.488       .  S
Zr1532     O3364   2.528   1_554  S
Zr1532     O1538   2.419       .  S
Zr1532     O1539   2.406       .  S
Zr1533     O1535   2.438       .  S
Zr1533     O1557   2.438       .  S
Zr1533     O1559   2.475       .  S
Zr1533     O1537   2.420       .  S
Zr1533     O1540   2.421       .  S
Zr1534     O1560   2.436       .  S
Zr1534     O1561   2.440       .  S
Zr1534     O1536   2.434       .  S
Zr1534     O1537   2.396       .  S
Zr1534     O1538   2.378       .  S
O1535      H1572   0.989       .  S
O1536      H1567   0.990       .  S
O1536      H1581   0.990       .  S
O1538      H1564   0.965       .  S
O1539     Zr1549   2.368       .  S
O1540     Zr1549   2.369       .  S
O1540      H1565   0.966       .  S
C1541      C1590   1.465   1_554  S
C1542      C1601   1.500       .  S
O1544      H1580   0.990   1_554  S
O1545      C1547   1.295       .  A
O1546      C1547   1.282       .  A
C1547      C1610   1.484       .  S
O1548     Zr1549   2.440       .  S
O1548      H1577   0.990       .  S
Zr1549     O1552   2.432       .  S
Zr1549     O1553   2.441       .  S
Zr1549     O1554   2.460       .  S
O1550      C1555   1.283       .  A
O1551      H1568   0.990       .  S
O1551      H1583   0.990       .  S
O1552      H1569   0.990       .  S
O1553      H1573   0.990       .  S
O1553      H1582   0.990       .  S
O1554      C1555   1.289       .  A
C1555      C1621   1.490       .  S
O1556      H1575   0.990       .  S
O1556      H1579   0.990       .  S
O1557      H1571   0.990       .  S
O1557      H1578   0.990       .  S
O1558      C1562   1.286       .  A
O1559      C1562   1.289       .  A
O1560      H1570   0.990       .  S
O1561      H1574   0.989       .  S
C1585      C1586   1.355       .  D
C1585      H1587   1.088       .  S
C1586      H1588   1.086       .  S
C1589      C1590   1.348       .  D
C1589      H1591   1.086   1_556  S
C1590      H1592   1.088       .  S
C1593      C1594   1.347       .  D
C1593      H1595   1.087       .  S
C1594      H1596   1.087       .  S
C1597      C1598   1.346       .  D
C1597      H1599   1.089       .  S
C1598      H1600   1.086       .  S
C1601      C3442   1.371       .  D
C1601      H1603   1.086       .  S
C1602      C3441   1.372       .  D
C1602      H1604   1.086       .  S
C1605      C1606   1.356       .  D
C1605      H1607   1.087       .  S
C1606      H1608   1.087       .  S
C1609      C1610   1.351       .  D
C1609      H1611   1.087       .  S
C1610      H1612   1.086       .  S
C1613      C1614   1.343       .  D
C1613      H1615   1.086       .  S
C1614      H1616   1.086       .  S
C1617      C1618   1.355       .  D
C1617      H1619   1.086       .  S
C1618      H1620   1.088       .  S
C1621      C1622   1.356       .  D
C1621      H1623   1.087       .  S
C1622      H1624   1.086       .  S
C1625      C1626   1.342       .  D
C1625      H1627   1.087       .  S
C1626      H1628   1.087       .  S
C1629      C1630   1.368       .  D
C1629      H1631   1.087       .  S
C1630      H1632   1.086       .  S
C1633      C1634   1.348       .  D
C1633      H1635   1.086       .  S
C1634      H1636   1.088       .  S
C1637      C1638   1.344       .  D
C1637      H1639   1.084       .  S
C1638      H1640   1.087       .  S
C1641      C1642   1.344       .  D
C1641      H1643   1.087       .  S
C1642      H1644   1.087       .  S
C1645      C1646   1.345       .  D
C1645      H1647   1.086       .  S
C1646      H1648   1.087       .  S
C1649      C1650   1.348       .  D
C1649      H1651   1.087       .  S
C1650      H1652   1.087       .  S
C1653      C1654   1.345       .  D
C1653      H1655   1.087       .  S
C1654      H1656   1.086       .  S
C1657      C1658   1.352       .  D
C1657      H1659   1.085       .  S
C1658      H1660   1.089       .  S
C1661      C1662   1.338       .  D
C1661      H1663   1.087       .  S
C1662      C2722   1.456       .  S
C1662      H3504   1.088       .  S
H1664      C3502   1.087       .  S
C1665      C3506   1.327       .  D
C1665      H1667   1.088       .  S
C1666      C3505   1.330       .  D
C1666      H1668   1.088       .  S
C1669      C1670   1.342       .  D
C1669      H1671   1.087       .  S
C1670      H1672   1.087       .  S
C1673      C1674   1.352       .  D
C1673      H1675   1.087       .  S
C1674      H1676   1.086       .  S
C1677      C1678   1.365       .  D
C1677      H1679   1.084       .  S
C1678      H1680   1.085       .  S
C1681      C2457   1.527       .  S
C1681      C1682   1.374   1_655  D
C1681      H1683   1.085   1_655  S
C1682      H3524   1.087       .  S
H1684      C3522   1.087   1_655  S
C1685      C1686   1.345       .  D
C1685      H1687   1.087       .  S
C1686      H1688   1.087       .  S
C1689      C1690   1.372       .  D
C1689      H1691   1.086       .  S
C1690      H1692   1.086       .  S
C1693      C1694   1.352   1_554  D
C1693      H1695   1.086       .  S
C1694      H1696   1.088       .  S
C1697      C1698   1.376       .  D
C1697      H1699   1.082       .  S
C1698      H1700   1.084       .  S
C1701      C2392   1.472       .  S
C1701      C1702   1.344       .  D
C1701      H1703   1.086       .  S
C1702      H1704   1.087       .  S
C1705      C1706   1.345       .  D
C1705      H1707   1.087       .  S
C1706      H1708   1.087       .  S
C1709      C1710   1.343       .  D
C1709      H1711   1.086       .  S
C1710      H1712   1.090       .  S
C1713      C3554   1.360       .  D
C1713      H1715   1.086       .  S
C1714      C3553   1.362       .  D
C1714      H1716   1.087       .  S
C1717      C1718   1.368       .  D
C1717      H1719   1.086   1_565  S
C1718      H1720   1.085       .  S
C1721      C1722   1.341   1_565  D
C1721      H1723   1.086       .  S
C1722      H1724   1.086       .  S
C1725      C1726   1.359       .  D
C1725      H1727   1.085       .  S
C1726      H1728   1.089       .  S
C1729      C1730   1.343       .  D
C1729      H1731   1.088       .  S
C1730      H1732   1.086       .  S
C1733      C1734   1.365       .  D
C1733      H1735   1.087       .  S
C1734      H1736   1.085       .  S
C1737      C1738   1.344       .  D
C1737      H1739   1.087       .  S
C1738      H1740   1.087   1_545  S
C1741      C1742   1.345       .  D
C1741      H1743   1.087       .  S
C1742      H1744   1.087       .  S
C1745      C1746   1.344       .  D
C1745      H1747   1.086       .  S
C1746      H1748   1.089       .  S
C1749      C1750   1.363       .  D
C1749      H1751   1.085       .  S
C1750      H1752   1.087       .  S
C1753      C1754   1.367       .  D
C1753      H1755   1.087       .  S
C1754      H1756   1.085       .  S
C1757      C1758   1.335       .  D
C1757      H1759   1.086       .  S
C1758      H1760   1.086       .  S
C1761      C1762   1.344       .  D
C1761      H1763   1.086       .  S
C1762      H1764   1.087       .  S
C1765      C1766   1.360       .  D
C1765      H1767   1.086       .  S
C1766      H1768   1.085       .  S
C1769      C1770   1.340       .  D
C1769      H1771   1.087       .  S
C1770      H1772   1.084       .  S
C1773      C1774   1.361   1_565  D
C1773      H1775   1.079       .  S
C1774      H1776   1.086   1_655  S
C1777      C1778   1.334       .  D
C1777      H1779   1.088   1_565  S
C1778      H1780   1.089       .  S
C1781      C1782   1.338       .  D
C1781      H1783   1.080       .  S
C1782      H1784   1.087       .  S
C1785      C1786   1.345       .  D
C1785      H1787   1.086       .  S
C1786      H1788   1.086       .  S
C1789      C1790   1.357       .  D
C1789      H1791   1.087       .  S
C1790      H1792   1.086       .  S
C1793      C1794   1.359       .  D
C1793      H1795   1.086       .  S
C1794      H1796   1.086       .  S
C1797      C1798   1.343       .  D
C1797      H1799   1.088       .  S
C1798      H1800   1.086       .  S
C1801      C1802   1.340       .  D
C1801      H1803   1.088       .  S
C1802      H1804   1.088       .  S
C1805      C1806   1.369       .  D
C1805      H1807   1.087       .  S
C1806      H1808   1.085   1_554  S
C1809      C1810   1.365       .  D
C1809      H1811   1.087       .  S
C1810      H1812   1.086       .  S
C1813      C1814   1.349       .  D
C1813      H1815   1.086       .  S
C1814      H3656   1.088       .  S
H1816      C3654   1.088       .  S
C1817      C1818   1.378       .  D
C1817      H1819   1.085       .  S
C1818      H1820   1.087       .  S
C1821      C3662   1.347       .  D
C1821      H1823   1.085       .  S
C1822      C3661   1.341       .  D
C1822      H1824   1.087       .  S
C1825      C3184   1.451   1_554  S
C1825      C1826   1.334       .  D
C1825      H1827   1.083       .  S
C1826      H1828   1.085       .  S
C1829      C1830   1.354       .  D
C1829      H1831   1.088       .  S
C1830      H1832   1.086       .  S
C1833      C1834   1.343       .  D
C1833      H1835   1.090       .  S
C1834      H1836   1.086       .  S
C1837      C1838   1.370   1_554  D
C1837      H1839   1.087       .  S
C1838      C2133   1.495       .  S
C1838      H3680   1.086       .  S
H1840      C3678   1.086       .  S
Zr1841     O1842   2.440       .  S
Zr1841     O1843   2.498       .  S
Zr1841     O1844   2.385       .  S
Zr1841     O1847   2.374       .  S
Zr1841     O1849   2.360       .  S
Zr1841     O1850   2.369       .  S
Zr1841     O1851   2.419       .  S
Zr1841     O1852   2.423       .  S
O1842      H1898   0.990       .  S
O1842      H1906   0.991       .  S
O1843      C1863   1.297       .  A
O1844      C1865   1.275       .  A
O1845     Zr1855   2.464       .  S
O1845      C1864   1.286       .  A
O1846     Zr1854   2.496       .  S
O1846      C1865   1.293       .  A
O1847      C1864   1.276       .  A
O1848     Zr1856   2.365       .  S
O1848      C1863   1.270       .  A
O1849     Zr1854   2.384       .  S
O1849     Zr1856   2.368       .  S
O1850     Zr1855   2.400       .  S
O1850     Zr1856   2.382       .  S
O1850      H1885   0.966       .  S
O1851     Zr1854   2.386       .  S
O1851     Zr1871   2.444       .  S
O1851      H1888   0.966       .  S
O1852     Zr1855   2.393       .  S
O1852     Zr1871   2.450       .  S
Zr1853     O1878   2.431       .  S
Zr1853     O1872   2.398       .  S
Zr1853     O1880   2.426       .  S
Zr1853     O1868   2.421       .  S
Zr1853     O1859   2.392       .  S
Zr1853     O1860   2.423       .  S
Zr1853     O1861   2.371       .  S
Zr1853     O1862   2.388       .  S
Zr1854     O1873   2.431       .  S
Zr1854     O1866   2.432       .  S
Zr1854     O1867   2.424       .  S
Zr1854     O1860   2.414       .  S
Zr1854     O1861   2.426       .  S
Zr1855     O1857   2.438       .  S
Zr1855     O1879   2.438       .  S
Zr1855     O1881   2.451       .  S
Zr1855     O1859   2.390       .  S
Zr1855     O1862   2.432       .  S
Zr1856     O1882   2.435       .  S
Zr1856     O1883   2.440       .  S
Zr1856     O1858   2.444       .  S
Zr1856     O1859   2.350       .  S
Zr1856     O1860   2.356       .  S
O1857      H1894   0.990       .  S
O1858      H1903   0.990       .  S
O1860      H1886   0.961       .  S
O1861     Zr1871   2.378       .  S
O1862     Zr1871   2.360       .  S
O1862      H1887   0.966       .  S
C1863      C3677   1.482       .  S
C1864      C3670   1.467       .  S
C1865      C3673   1.485       .  S
O1866      H1902   0.991       .  S
O1867      C1869   1.283       .  A
O1868      C1869   1.281       .  A
C1869      C3661   1.451       .  S
O1870     Zr1871   2.439       .  S
O1870      H1899   0.990       .  S
Zr1871     O1874   2.437       .  S
Zr1871     O1875   2.440       .  S
Zr1871     O1876   2.548       .  S
O1872      C1877   1.269       .  A
O1873      H1890   0.990       .  S
O1873      H1905   0.990       .  S
O1874      H1891   0.990       .  S
O1875      H1895   0.990       .  S
O1875      H1904   0.990       .  S
O1876      C1877   1.304       .  A
C1877      C3657   1.522       .  S
O1878      H1897   0.991       .  S
O1878      H1901   0.987       .  S
O1879      H1893   0.990       .  S
O1879      H1900   0.991       .  S
O1880      C1884   1.266       .  A
O1881      C1884   1.275       .  A
O1882      H1892   0.990       .  S
C1884      C3666   1.459       .  S
Zr1907     O1909   2.466       .  S
Zr1907     O1910   2.425       .  S
Zr1907     O1913   2.402       .  S
Zr1907     O1915   2.366       .  S
Zr1907     O1916   2.369       .  S
Zr1907     O1917   2.418       .  S
Zr1907     O1918   2.419       .  S
O1908      H1964   0.991       .  S
O1908      H1972   0.990       .  S
O1909      C1929   1.291       .  A
O1910      C1931   1.285       .  A
O1911     Zr1921   2.425       .  S
O1911      C1930   1.280       .  A
O1912     Zr1920   2.467       .  S
O1912      C1931   1.288       .  A
O1913      C1930   1.281       .  A
O1914     Zr1922   2.420       .  S
O1914      C1929   1.281       .  A
O1915     Zr1920   2.389       .  S
O1915     Zr1922   2.377       .  S
O1916     Zr1921   2.386       .  S
O1916     Zr1922   2.376       .  S
O1916      H1951   0.966       .  S
O1917     Zr1920   2.399       .  S
O1917     Zr1937   2.439       .  S
O1917      H1954   0.967       .  S
O1918     Zr1921   2.391       .  S
O1918     Zr1937   2.426       .  S
Zr1919     O1944   2.444       .  S
Zr1919     O1938   2.412       .  S
Zr1919     O1946   2.407       .  S
Zr1919     O1934   2.413       .  S
Zr1919     O1925   2.399       .  S
Zr1919     O1926   2.409       .  S
Zr1919     O1927   2.375       .  S
Zr1919     O1928   2.385       .  S
Zr1920     O1939   2.436       .  S
Zr1920     O1932   2.435       .  S
Zr1920     O1933   2.434       .  S
Zr1920     O1926   2.409       .  S
Zr1920     O1927   2.408       .  S
Zr1921     O1923   2.438       .  S
Zr1921     O1945   2.440       .  S
Zr1921     O1947   2.420       .  S
Zr1921     O1925   2.400       .  S
Zr1921     O1928   2.385       .  S
Zr1922     O1948   2.432       .  S
Zr1922     O1949   2.434       .  S
Zr1922     O1924   2.438       .  S
Zr1922     O1925   2.382       .  S
Zr1922     O1926   2.381       .  S
O1923      H1960   0.990       .  S
O1924      H1955   0.990       .  S
O1924      H1969   0.990       .  S
O1926      H1952   0.966       .  S
O1927     Zr1937   2.375       .  S
O1928     Zr1937   2.359       .  S
O1928      H1953   0.965       .  S
C1929      C3649   1.489       .  S
C1930      C3653   1.463       .  S
C1931      C3674   1.497       .  S
O1932      H1968   0.990       .  S
O1933      C1935   1.284       .  A
O1934      C1935   1.280       .  A
C1935      C3637   1.452       .  S
O1936      H1965   0.990       .  S
Zr1937     O1940   2.433       .  S
Zr1937     O1942   2.516       .  S
O1938      C1943   1.280       .  A
O1939      H1956   0.990       .  S
O1939      H1971   0.990       .  S
O1941      H1961   0.990       .  S
O1941      H1970   0.990       .  S
O1942      C1943   1.298       .  A
C1943      C3645   1.501       .  S
O1944      H1963   0.990       .  S
O1944      H1967   0.991       .  S
O1945      H1959   0.990       .  S
O1945      H1966   0.990       .  S
O1946      C1950   1.270       .  A
O1947      C1950   1.279       .  A
O1948      H1958   0.990       .  S
O1949      H1962   0.990       .  S
C1950      C3642   1.443       .  S
Zr1973     O1974   2.446       .  S
Zr1973     O1975   2.503       .  S
Zr1973     O1976   2.455       .  S
Zr1973     O1979   2.414       .  S
Zr1973     O1981   2.364       .  S
Zr1973     O1982   2.400       .  S
Zr1973     O1983   2.422       .  S
Zr1973     O1984   2.445       .  S
O1974      H2030   0.990       .  S
O1974      H2038   0.991       .  S
O1975      C1995   1.292       .  A
O1976      C1997   1.285       .  A
O1977     Zr1987   2.449       .  S
O1977      C1996   1.282       .  A
O1978     Zr1986   2.462       .  S
O1978      C1997   1.288       .  A
O1979      C1996   1.273       .  A
O1980     Zr1988   2.369       .  S
O1980      C1995   1.265       .  A
O1981     Zr1986   2.379       .  S
O1981     Zr1988   2.395       .  S
O1982     Zr1987   2.415       .  S
O1982     Zr1988   2.363       .  S
O1982      H2017   0.963       .  S
O1983     Zr1986   2.385       .  S
O1983     Zr2003   2.442   1_455  S
O1983      H2020   0.966   1_455  S
O1984     Zr1987   2.403       .  S
O1984     Zr2003   2.433   1_455  S
Zr1985     O2010   2.435       .  S
Zr1985     O2004   2.403       .  S
Zr1985     O2012   2.409       .  S
Zr1985     O2000   2.448       .  S
Zr1985     O1991   2.397       .  S
Zr1985     O1992   2.385       .  S
Zr1985     O1993   2.384       .  S
Zr1985     O1994   2.395       .  S
Zr1986     O2005   2.439   1_455  S
Zr1986     O1998   2.435       .  S
Zr1986     O1999   2.397       .  S
Zr1986     O1992   2.406       .  S
Zr1986     O1993   2.406       .  S
Zr1987     O1989   2.435       .  S
Zr1987     O2011   2.439       .  S
Zr1987     O2013   2.452       .  S
Zr1987     O1991   2.405       .  S
Zr1987     O1994   2.385       .  S
Zr1988     O2014   2.431       .  S
Zr1988     O2015   2.432       .  S
Zr1988     O1990   2.438       .  S
Zr1988     O1991   2.366       .  S
Zr1988     O1992   2.352       .  S
O1989      H2026   0.990       .  S
O1990      H2021   0.989       .  S
O1990      H2035   0.990       .  S
O1992      H2018   0.964       .  S
O1993     Zr2003   2.366   1_455  S
O1994     Zr2003   2.349   1_455  S
O1994      H2019   0.966       .  S
C1995      C3634   1.483       .  S
C1996      C3625   1.464       .  S
C1997      C3629   1.501       .  S
O1998      H2034   0.990       .  S
O1999      C2001   1.281       .  A
O2000      C2001   1.288       .  A
C2001      C3621   1.467       .  S
O2002     Zr2003   2.438       .  S
O2002      H2031   0.990       .  S
Zr2003     O2006   2.427       .  S
Zr2003     O2007   2.441       .  S
Zr2003     O2008   2.527       .  S
O2004      C2009   1.278   1_455  A
O2005      H2022   0.990       .  S
O2005      H2037   0.990       .  S
O2006      H2023   0.990       .  S
O2007      H2027   0.991       .  S
O2007      H2036   0.990       .  S
O2008      C2009   1.302       .  A
C2009      C3613   1.501       .  S
O2010      H2029   0.990       .  S
O2010      H2033   0.990       .  S
O2011      H2025   0.990       .  S
O2011      H2032   0.990       .  S
O2012      C2016   1.269       .  A
O2013      C2016   1.287       .  A
O2014      H2024   0.990       .  S
O2015      H2028   0.990       .  S
C2016      C3617   1.453       .  S
Zr2039     O2040   2.442       .  S
Zr2039     O2041   2.502       .  S
Zr2039     O2042   2.431       .  S
Zr2039     O2045   2.395       .  S
Zr2039     O2047   2.372       .  S
Zr2039     O2048   2.405       .  S
Zr2039     O2049   2.424       .  S
Zr2039     O2050   2.427       .  S
O2040      H2096   0.990       .  S
O2040      H2104   0.991       .  S
O2041      C2061   1.290       .  A
O2042      C2063   1.281       .  A
O2043     Zr2053   2.421       .  S
O2043      C2062   1.275       .  A
O2044     Zr2052   2.489       .  S
O2044      C2063   1.293       .  A
O2045      C2062   1.270       .  A
O2046     Zr2054   2.385       .  S
O2046      C2061   1.269       .  A
O2047     Zr2052   2.372       .  S
O2047     Zr2054   2.374       .  S
O2048     Zr2053   2.419       .  S
O2048     Zr2054   2.378       .  S
O2048      H2083   0.966       .  S
O2049     Zr2052   2.388       .  S
O2049     Zr2069   2.449   1_455  S
O2049      H2086   0.966   1_455  S
O2050     Zr2053   2.406       .  S
O2050     Zr2069   2.422   1_455  S
Zr2051     O2076   2.431       .  S
Zr2051     O2070   2.422   1_455  S
Zr2051     O2078   2.423       .  S
Zr2051     O2066   2.388       .  S
Zr2051     O2057   2.393       .  S
Zr2051     O2058   2.407       .  S
Zr2051     O2059   2.380   1_455  S
Zr2051     O2060   2.372       .  S
Zr2052     O2071   2.434   1_455  S
Zr2052     O2064   2.435   1_455  S
Zr2052     O2065   2.428   1_455  S
Zr2052     O2058   2.412       .  S
Zr2052     O2059   2.417   1_455  S
Zr2053     O2055   2.436       .  S
Zr2053     O2077   2.439       .  S
Zr2053     O2079   2.446       .  S
Zr2053     O2057   2.387       .  S
Zr2053     O2060   2.402       .  S
Zr2054     O2080   2.436       .  S
Zr2054     O2081   2.433       .  S
Zr2054     O2056   2.438       .  S
Zr2054     O2057   2.374       .  S
Zr2054     O2058   2.358       .  S
O2055      H2092   0.990       .  S
O2056      H2087   0.990       .  S
O2056      H2101   0.990       .  S
O2058      H2084   0.963       .  S
O2059     Zr2069   2.373       .  S
O2060     Zr2069   2.372   1_455  S
O2060      H2085   0.966       .  S
C2061      C3606   1.496       .  S
C2062      C3609   1.448       .  S
C2063      C3630   1.505       .  S
O2064      H2100   0.991   1_655  S
O2065      C2067   1.282       .  A
O2066      C2067   1.280   1_455  A
C2067      C3597   1.452       .  S
O2068     Zr2069   2.436       .  S
O2068      H2097   0.990       .  S
Zr2069     O2072   2.434       .  S
Zr2069     O2073   2.437       .  S
Zr2069     O2074   2.525       .  S
O2070      C2075   1.281       .  A
O2071      H2088   0.990       .  S
O2071      H2103   0.990       .  S
O2072      H2089   0.990       .  S
O2073      H2093   0.990       .  S
O2073      H2102   0.990   1_655  S
O2074      C2075   1.298       .  A
C2075      C3593   1.512       .  S
O2076      H2095   0.989       .  S
O2076      H2099   0.989       .  S
O2077      H2091   0.990       .  S
O2077      H2098   0.991       .  S
O2078      C2082   1.269       .  A
O2079      C2082   1.282       .  A
O2080      H2090   0.990       .  S
O2081      H2094   0.990       .  S
C2082      C3602   1.459       .  S
Zr2105     O2106   2.438       .  S
Zr2105     O2107   2.434       .  S
Zr2105     O2108   2.424       .  S
Zr2105     O2111   2.437       .  S
Zr2105     O2113   2.383       .  S
Zr2105     O2114   2.389       .  S
Zr2105     O2115   2.407       .  S
Zr2105     O2116   2.397       .  S
O2106      H2162   0.990       .  S
O2106      H2170   0.990       .  S
O2107      C2127   1.281       .  A
O2108      C2129   1.286       .  A
O2109     Zr2119   2.409       .  S
O2109      C2128   1.281       .  A
O2110     Zr2118   2.487       .  S
O2110      C2129   1.293       .  A
O2111      C2128   1.287       .  A
O2112     Zr2120   2.461       .  S
O2112      C2127   1.290       .  A
O2113     Zr2118   2.414       .  S
O2113     Zr2120   2.366       .  S
O2114     Zr2119   2.410       .  S
O2114     Zr2120   2.366       .  S
O2114      H2149   0.966       .  S
O2115     Zr2118   2.422       .  S
O2115     Zr2135   2.398       .  S
O2115      H2152   0.966       .  S
O2116     Zr2119   2.411       .  S
O2116     Zr2135   2.383       .  S
Zr2117     O2132   2.356       .  S
Zr2117     O2123   2.390   1_554  S
Zr2117     O2124   2.399   1_554  S
Zr2117     O2125   2.371   1_554  S
Zr2117     O2126   2.364       .  S
Zr2118     O2137   2.438       .  S
Zr2118     O2130   2.434       .  S
Zr2118     O2131   2.527       .  S
Zr2118     O2124   2.393       .  S
Zr2118     O2125   2.385       .  S
Zr2119     O2121   2.439   1_556  S
Zr2119     O2123   2.386       .  S
Zr2119     O2126   2.375   1_556  S
Zr2120     O2146   2.439       .  S
Zr2120     O2147   2.436       .  S
Zr2120     O2122   2.434       .  S
Zr2120     O2123   2.412       .  S
Zr2120     O2124   2.410       .  S
O2122      H2153   0.990       .  S
O2122      H2167   0.990       .  S
O2124      H2150   0.966       .  S
O2125     Zr2135   2.380       .  S
O2126     Zr2135   2.379   1_554  S
C2127      C3605   1.487       .  S
C2128      C3626   1.463       .  S
C2129      C2195   1.491       .  S
O2130      H2166   0.990       .  S
O2131      C2133   1.303       .  A
O2132      C2133   1.270   1_554  A
O2134     Zr2135   2.432       .  S
O2134      H2163   0.989       .  S
Zr2135     O2138   2.431       .  S
Zr2135     O2139   2.440       .  S
Zr2135     O2140   2.409   1_556  S
O2136      C2141   1.279       .  A
O2137      H2154   0.990       .  S
O2137      H2169   0.990       .  S
O2138      H2155   0.989       .  S
O2139      H2159   0.990       .  S
O2139      H2168   0.990   1_556  S
C2141      C3654   1.462       .  S
O2142      H2161   0.990       .  S
O2142      H2165   0.990       .  S
O2143      H2157   0.990       .  S
O2144      C2148   1.275       .  A
O2145      C2148   1.291       .  A
O2146      H2156   0.990       .  S
O2147      H2160   0.990   1_556  S
C2148      C2214   1.473       .  S
Zr2171     O2172   2.434       .  S
Zr2171     O2173   2.393       .  S
Zr2171     O2174   2.407       .  S
Zr2171     O2177   2.414       .  S
Zr2171     O2179   2.377       .  S
Zr2171     O2180   2.388       .  S
Zr2171     O2181   2.398       .  S
Zr2171     O2182   2.379       .  S
O2172      H2228   0.990       .  S
O2172      H2236   0.990       .  S
O2173      C2193   1.275       .  A
O2174      C2195   1.282       .  A
O2175     Zr2185   2.405       .  S
O2175      C2194   1.279       .  A
O2176     Zr2184   2.497       .  S
O2176      C2195   1.295       .  A
O2177      C2194   1.281       .  A
O2178     Zr2186   2.464       .  S
O2178      C2193   1.290       .  A
O2179     Zr2184   2.401       .  S
O2179     Zr2186   2.358       .  S
O2180     Zr2185   2.400       .  S
O2180     Zr2186   2.371       .  S
O2180      H2215   0.966       .  S
O2181     Zr2184   2.415       .  S
O2181     Zr2201   2.395       .  S
O2181      H2218   0.966       .  S
O2182     Zr2185   2.400       .  S
O2182     Zr2201   2.364       .  S
Zr2183     O2208   2.440       .  S
Zr2183     O2202   2.437       .  S
Zr2183     O2210   2.400       .  S
Zr2183     O2198   2.390       .  S
Zr2183     O2189   2.394       .  S
Zr2183     O2190   2.415       .  S
Zr2183     O2191   2.375       .  S
Zr2183     O2192   2.369       .  S
Zr2184     O2203   2.440       .  S
Zr2184     O2196   2.438       .  S
Zr2184     O2197   2.502       .  S
Zr2184     O2190   2.403       .  S
Zr2184     O2191   2.390       .  S
Zr2185     O2187   2.444       .  S
Zr2185     O2209   2.436       .  S
Zr2185     O2211   2.457       .  S
Zr2185     O2189   2.377       .  S
Zr2185     O2192   2.389       .  S
Zr2186     O2212   2.435       .  S
Zr2186     O2213   2.433       .  S
Zr2186     O2188   2.436       .  S
Zr2186     O2189   2.415       .  S
Zr2186     O2190   2.414       .  S
O2187      H2224   0.990       .  S
O2188      H2219   0.990       .  S
O2188      H2233   0.990       .  S
O2190      H2216   0.966       .  S
O2191     Zr2201   2.384       .  S
O2192     Zr2201   2.390       .  S
O2192      H2217   0.966       .  S
C2193      C3633   1.473       .  S
C2194      C3610   1.441       .  S
O2196      H2232   0.990       .  S
O2197      C2199   1.297       .  A
O2198      C2199   1.277       .  A
C2199      C3650   1.493       .  S
O2200     Zr2201   2.439       .  S
O2200      H2229   0.990       .  S
Zr2201     O2204   2.439       .  S
Zr2201     O2205   2.441       .  S
Zr2201     O2206   2.389       .  S
O2202      C2207   1.285       .  A
O2203      H2220   0.991       .  S
O2203      H2235   0.990       .  S
O2204      H2221   0.990       .  S
O2205      H2225   0.990       .  S
O2205      H2234   0.990       .  S
O2206      C2207   1.276       .  A
C2207      C3669   1.464       .  S
O2208      H2227   0.990       .  S
O2208      H2231   0.990       .  S
O2209      H2223   0.991       .  S
O2209      H2230   0.990       .  S
O2210      C2214   1.280       .  A
O2211      C2214   1.284       .  A
O2212      H2222   0.990       .  S
O2213      H2226   0.990       .  S
Zr2237     O2238   2.445       .  S
Zr2237     O2239   2.470       .  S
Zr2237     O2240   2.410       .  S
Zr2237     O2243   2.428       .  S
Zr2237     O2245   2.375       .  S
Zr2237     O2246   2.382       .  S
Zr2237     O2247   2.427       .  S
Zr2237     O2248   2.401       .  S
O2238      H2294   0.990       .  S
O2238      H2302   0.990       .  S
O2239      C2259   1.289       .  A
O2240      C2261   1.282       .  A
O2241     Zr2251   2.447   1_545  S
O2241      C2260   1.285       .  A
O2242     Zr2250   2.441       .  S
O2242      C2261   1.283       .  A
O2243      C2260   1.285   1_565  A
O2244     Zr2252   2.470       .  S
O2244      C2259   1.287       .  A
O2245     Zr2250   2.407       .  S
O2245     Zr2252   2.379       .  S
O2246     Zr2251   2.418       .  S
O2246     Zr2252   2.383       .  S
O2246      H2281   0.966   1_565  S
O2247     Zr2250   2.405       .  S
O2247     Zr2267   2.372       .  S
O2247      H2284   0.963       .  S
O2248     Zr2251   2.388       .  S
O2248     Zr2267   2.382       .  S
Zr2249     O2274   2.443       .  S
Zr2249     O2268   2.487       .  S
Zr2249     O2276   2.419       .  S
Zr2249     O2264   2.378       .  S
Zr2249     O2255   2.417       .  S
Zr2249     O2256   2.418       .  S
Zr2249     O2257   2.370       .  S
Zr2249     O2258   2.377       .  S
Zr2250     O2269   2.438       .  S
Zr2250     O2262   2.432       .  S
Zr2250     O2263   2.453       .  S
Zr2250     O2256   2.395       .  S
Zr2250     O2257   2.384       .  S
Zr2251     O2253   2.437   1_565  S
Zr2251     O2275   2.437   1_565  S
Zr2251     O2277   2.473       .  S
Zr2251     O2255   2.390       .  S
Zr2251     O2258   2.401       .  S
Zr2252     O2278   2.433   1_565  S
Zr2252     O2279   2.432       .  S
Zr2252     O2254   2.435       .  S
Zr2252     O2255   2.432       .  S
Zr2252     O2256   2.407       .  S
O2253      H2290   0.990       .  S
O2254      H2285   0.990       .  S
O2254      H2299   0.989       .  S
O2256      H2282   0.966       .  S
O2257     Zr2267   2.366       .  S
O2258     Zr2267   2.361       .  S
O2258      H2283   0.964       .  S
C2259      C3573   1.518   1_565  S
C2260      C3577   1.471       .  S
C2261      C3638   1.466       .  S
O2262      H2298   0.990       .  S
O2263      C2265   1.287       .  A
O2264      C2265   1.276       .  A
C2265      C3581   1.464       .  S
O2266     Zr2267   2.437       .  S
O2266      H2295   0.991       .  S
Zr2267     O2270   2.438       .  S
Zr2267     O2271   2.438       .  S
Zr2267     O2272   2.417       .  S
O2268      C2273   1.293       .  A
O2269      H2286   0.990       .  S
O2269      H2301   0.990       .  S
O2270      H2287   0.990       .  S
O2271      H2291   0.990       .  S
O2271      H2300   0.990       .  S
O2272      C2273   1.281       .  A
C2273      C3589   1.504       .  S
O2274      H2293   0.990       .  S
O2274      H2297   0.990       .  S
O2275      H2289   0.990       .  S
O2275      H2296   0.990       .  S
O2276      C2280   1.283       .  A
O2277      C2280   1.290       .  A
O2278      H2288   0.990       .  S
O2279      H2292   0.990       .  S
C2280      C3585   1.480       .  S
Zr2303     O2304   2.428       .  S
Zr2303     O2305   2.408       .  S
Zr2303     O2306   2.409       .  S
Zr2303     O2309   2.455       .  S
Zr2303     O2311   2.367       .  S
Zr2303     O2312   2.386       .  S
Zr2303     O2313   2.407       .  S
Zr2303     O2314   2.352       .  S
O2304      H2360   0.989       .  S
O2304      H2368   0.989       .  S
O2305      C2325   1.278       .  A
O2306      C2327   1.285       .  A
O2307     Zr2317   2.418       .  S
O2307      C2326   1.283       .  A
O2308     Zr2316   2.410       .  S
O2308      C2327   1.280       .  A
O2309      C2326   1.290       .  A
O2310     Zr2318   2.564       .  S
O2310      C2325   1.303       .  A
O2311     Zr2316   2.388       .  S
O2311     Zr2318   2.324       .  S
O2312     Zr2317   2.402       .  S
O2312     Zr2318   2.372       .  S
O2312      H2347   0.964   1_565  S
O2313     Zr2316   2.415       .  S
O2313     Zr2333   2.386       .  S
O2313      H2350   0.966       .  S
O2314     Zr2317   2.376       .  S
O2314     Zr2333   2.331       .  S
Zr2315     O2340   2.443       .  S
Zr2315     O2334   2.528       .  S
Zr2315     O2342   2.416       .  S
Zr2315     O2330   2.390       .  S
Zr2315     O2321   2.433       .  S
Zr2315     O2322   2.441       .  S
Zr2315     O2323   2.376       .  S
Zr2315     O2324   2.367       .  S
Zr2316     O2335   2.429       .  S
Zr2316     O2328   2.434       .  S
Zr2316     O2329   2.458       .  S
Zr2316     O2322   2.387       .  S
Zr2316     O2323   2.378       .  S
Zr2317     O2319   2.437   1_565  S
Zr2317     O2341   2.436   1_565  S
Zr2317     O2343   2.459       .  S
Zr2317     O2321   2.372       .  S
Zr2317     O2324   2.401       .  S
Zr2318     O2344   2.438   1_565  S
Zr2318     O2345   2.432       .  S
Zr2318     O2320   2.433       .  S
Zr2318     O2321   2.460       .  S
Zr2318     O2322   2.441       .  S
O2319      H2356   0.991   1_545  S
O2320      H2351   0.990       .  S
O2320      H2365   0.990       .  S
O2322      H2348   0.966       .  S
O2323     Zr2333   2.372       .  S
O2324     Zr2333   2.399       .  S
O2324      H2349   0.965       .  S
C2325      C3557   1.526   1_665  S
C2326      C3561   1.465       .  S
C2327      C3622   1.466   1_655  S
O2328      H2364   0.990       .  S
O2329      C2331   1.285       .  A
O2330      C2331   1.270       .  A
C2331      C3569   1.474       .  S
O2332     Zr2333   2.434       .  S
O2332      H2361   0.990       .  S
Zr2333     O2336   2.437       .  S
Zr2333     O2337   2.437       .  S
Zr2333     O2338   2.351       .  S
O2334      C2339   1.300       .  A
O2335      H2352   0.990       .  S
O2335      H2367   0.990       .  S
O2336      H2353   0.991       .  S
O2337      H2357   0.990       .  S
O2337      H2366   0.990       .  S
O2338      C2339   1.270       .  A
C2339      C3565   1.505       .  S
O2340      H2359   0.991       .  S
O2340      H2363   0.991       .  S
O2341      H2355   0.989       .  S
O2341      H2362   0.990       .  S
O2342      C2346   1.280       .  A
O2343      C2346   1.286       .  A
O2344      H2354   0.990       .  S
O2345      H2358   0.990       .  S
C2346      C3586   1.480       .  S
Zr2369     O2371   2.439       .  S
Zr2369     O2372   2.378   1_556  S
Zr2369     O2375   2.455   1_556  S
Zr2369     O2377   2.368       .  S
Zr2369     O2378   2.369       .  S
Zr2369     O2379   2.416   1_556  S
Zr2369     O2380   2.371   1_556  S
O2370      H2426   0.991       .  S
O2370      H2434   0.990       .  S
O2371      C2391   1.285       .  A
O2372      C2393   1.274       .  A
O2373     Zr2383   2.441   1_554  S
O2373      C2392   1.283       .  A
O2374     Zr2382   2.427       .  S
O2374      C2393   1.279   1_556  A
O2375      C2392   1.290       .  A
O2376     Zr2384   2.506       .  S
O2376      C2391   1.292       .  A
O2377     Zr2382   2.396       .  S
O2377     Zr2384   2.369       .  S
O2378     Zr2383   2.417       .  S
O2378     Zr2384   2.391       .  S
O2378      H2413   0.966       .  S
O2379     Zr2382   2.407   1_554  S
O2379     Zr2399   2.377       .  S
O2379      H2416   0.964       .  S
O2380     Zr2383   2.374   1_554  S
O2380     Zr2399   2.367       .  S
Zr2381     O2406   2.434       .  S
Zr2381     O2400   2.470       .  S
Zr2381     O2408   2.407       .  S
Zr2381     O2396   2.402       .  S
Zr2381     O2387   2.414       .  S
Zr2381     O2388   2.420       .  S
Zr2381     O2389   2.360       .  S
Zr2381     O2390   2.374   1_556  S
Zr2382     O2401   2.437       .  S
Zr2382     O2394   2.435       .  S
Zr2382     O2395   2.438       .  S
Zr2382     O2388   2.396       .  S
Zr2382     O2389   2.382       .  S
Zr2383     O2385   2.441   1_556  S
Zr2383     O2407   2.442       .  S
Zr2383     O2409   2.452       .  S
Zr2383     O2387   2.391       .  S
Zr2383     O2390   2.409   1_556  S
Zr2384     O2410   2.439       .  S
Zr2384     O2411   2.438       .  S
Zr2384     O2386   2.438       .  S
Zr2384     O2387   2.440       .  S
Zr2384     O2388   2.433       .  S
O2385      H2422   0.990   1_554  S
O2386      H2417   0.991       .  S
O2386      H2431   0.990       .  S
O2388      H2414   0.966       .  S
O2389     Zr2399   2.368   1_556  S
O2390     Zr2399   2.371       .  S
O2390      H2415   0.964       .  S
C2391      C3537   1.518       .  S
C2393      C3662   1.457       .  S
O2394      H2430   0.990       .  S
O2395      C2397   1.285       .  A
O2396      C2397   1.280       .  A
C2397      C3545   1.469       .  S
O2398      H2427   0.990       .  S
Zr2399     O2402   2.433       .  S
Zr2399     O2404   2.404       .  S
O2400      C2405   1.291   1_556  A
O2401      H2418   0.990       .  S
O2401      H2433   0.990   1_556  S
O2403      H2423   0.990       .  S
O2403      H2432   0.990       .  S
O2404      C2405   1.278       .  A
C2405      C3554   1.487       .  S
O2406      H2425   0.991       .  S
O2406      H2429   0.990       .  S
O2407      H2421   0.990       .  S
O2407      H2428   0.990       .  S
O2408      C2412   1.282       .  A
O2409      C2412   1.285       .  A
O2410      H2420   0.990       .  S
O2411      H2424   0.990       .  S
C2412      C3549   1.468       .  S
Zr2435     O2436   2.421       .  S
Zr2435     O2437   2.391       .  S
Zr2435     O2438   2.397       .  S
Zr2435     O2441   2.425       .  S
Zr2435     O2443   2.384       .  S
Zr2435     O2444   2.375   1_556  S
Zr2435     O2445   2.418       .  S
Zr2435     O2446   2.382       .  S
O2436      H2492   0.990       .  S
O2436      H2500   0.989       .  S
O2438      C2459   1.276       .  A
O2439     Zr2449   2.399       .  S
O2439      C2458   1.274       .  A
O2440     Zr2448   2.421       .  S
O2440      C2459   1.279       .  A
O2441      C2458   1.272       .  A
O2442     Zr2450   2.557       .  S
O2442      C2457   1.307       .  A
O2443     Zr2448   2.394       .  S
O2444     Zr2449   2.412   1_554  S
O2444      H2479   0.966       .  S
O2445     Zr2448   2.416       .  S
O2445     Zr2465   2.386       .  S
O2445      H2482   0.966       .  S
O2446     Zr2449   2.406       .  S
O2446     Zr2465   2.369       .  S
Zr2447     O2466   2.484       .  S
Zr2447     O2474   2.416   1_556  S
Zr2447     O2453   2.417   1_556  S
Zr2447     O2455   2.363       .  S
Zr2447     O2456   2.368       .  S
Zr2448     O2467   2.439       .  S
Zr2448     O2455   2.363       .  S
Zr2449     O2451   2.438       .  S
Zr2449     O2473   2.436   1_556  S
Zr2449     O2475   2.443       .  S
Zr2449     O2453   2.384   1_556  S
Zr2449     O2456   2.405       .  S
Zr2450     O2476   2.437       .  S
Zr2450     O2477   2.434       .  S
Zr2450     O2452   2.432       .  S
Zr2450     O2454   2.438       .  S
O2451      H2488   0.990   1_556  S
O2452      H2483   0.990       .  S
O2452      H2497   0.990       .  S
O2454      H2480   0.965       .  S
O2455     Zr2465   2.375       .  S
O2456     Zr2465   2.387       .  S
O2456      H2481   0.964       .  S
C2458      C3525   1.445       .  S
C2459      C3598   1.443       .  S
O2460      H2496   0.991       .  S
O2461      C2463   1.287       .  A
O2462      C2463   1.274       .  A
C2463      C3533   1.471       .  S
O2464     Zr2465   2.440       .  S
O2464      H2493   0.990       .  S
Zr2465     O2468   2.438       .  S
Zr2465     O2469   2.442       .  S
Zr2465     O2470   2.410       .  S
O2466      C2471   1.296       .  A
O2467      H2484   0.990       .  S
O2467      H2499   0.989       .  S
O2468      H2485   0.990       .  S
O2469      H2489   0.990       .  S
O2469      H2498   0.990       .  S
O2470      C2471   1.278       .  A
C2471      C3529   1.486       .  S
O2472      H2491   0.990       .  S
O2472      H2495   0.990       .  S
O2473      H2487   0.990       .  S
O2473      H2494   0.990       .  S
O2474      C2478   1.281       .  A
O2475      C2478   1.284   1_556  A
O2476      H2486   0.990       .  S
O2477      H2490   0.990       .  S
C2478      C3550   1.465       .  S
Zr2501     O2502   2.443       .  S
Zr2501     O2503   2.444       .  S
Zr2501     O2504   2.391       .  S
Zr2501     O2507   2.358       .  S
Zr2501     O2509   2.366       .  S
Zr2501     O2510   2.373       .  S
Zr2501     O2511   2.393       .  S
Zr2501     O2512   2.406       .  S
O2502      H2558   0.991       .  S
O2502      H2566   0.990       .  S
O2503      C2523   1.285       .  A
O2504      C2525   1.277       .  A
O2505     Zr2515   2.520       .  S
O2505      C2524   1.301       .  A
O2506     Zr2514   2.484       .  S
O2506      C2525   1.289       .  A
O2507      C2524   1.272       .  A
O2508     Zr2516   2.400       .  S
O2508      C2523   1.278       .  A
O2509     Zr2514   2.400       .  S
O2509     Zr2516   2.392       .  S
O2510     Zr2515   2.385       .  S
O2510     Zr2516   2.369       .  S
O2510      H2545   0.965       .  S
O2511     Zr2514   2.390       .  S
O2511     Zr2531   2.404       .  S
O2511      H2548   0.966       .  S
O2512     Zr2515   2.402       .  S
O2512     Zr2531   2.411       .  S
Zr2513     O2538   2.437       .  S
Zr2513     O2532   2.453       .  S
Zr2513     O2540   2.392       .  S
Zr2513     O2528   2.412       .  S
Zr2513     O2519   2.402       .  S
Zr2513     O2520   2.403       .  S
Zr2513     O2521   2.384       .  S
Zr2513     O2522   2.386       .  S
Zr2514     O2533   2.432       .  S
Zr2514     O2526   2.438       .  S
Zr2514     O2527   2.433       .  S
Zr2514     O2520   2.416       .  S
Zr2514     O2521   2.408       .  S
Zr2515     O2517   2.435       .  S
Zr2515     O2539   2.438       .  S
Zr2515     O2541   2.491       .  S
Zr2515     O2519   2.404       .  S
Zr2515     O2522   2.408       .  S
Zr2516     O2542   2.438       .  S
Zr2516     O2543   2.437       .  S
Zr2516     O2518   2.434       .  S
Zr2516     O2519   2.391       .  S
Zr2516     O2520   2.371       .  S
O2517      H2554   0.990       .  S
O2518      H2549   0.990       .  S
O2518      H2563   0.990       .  S
O2520      H2546   0.965       .  S
O2521     Zr2531   2.374       .  S
O2522     Zr2531   2.356       .  S
O2522      H2547   0.965       .  S
C2523      C3546   1.471       .  S
C2524      C3530   1.495       .  S
C2525      C2591   1.479       .  S
O2526      H2562   0.989       .  S
O2527      C2529   1.284       .  A
O2528      C2529   1.282       .  A
C2529      C3582   1.455       .  S
O2530     Zr2531   2.433       .  S
O2530      H2559   0.990       .  S
Zr2531     O2534   2.434       .  S
Zr2531     O2535   2.438       .  S
Zr2531     O2536   2.447       .  S
O2532      C2537   1.284       .  A
O2533      H2550   0.991       .  S
O2533      H2565   0.990       .  S
O2534      H2551   0.990       .  S
O2535      H2555   0.990       .  S
O2535      H2564   0.990       .  S
O2536      C2537   1.287       .  A
C2537      C3566   1.492       .  S
O2538      H2557   0.990       .  S
O2538      H2561   0.990       .  S
O2539      H2553   0.990       .  S
O2539      H2560   0.990       .  S
O2540      C2544   1.279       .  A
O2541      C2544   1.296       .  A
O2542      H2552   0.990       .  S
O2543      H2556   0.990       .  S
C2544      C2610   1.476       .  S
Zr2567     O2569   2.431       .  S
Zr2567     O2573   2.397       .  S
Zr2567     O2575   2.367       .  S
Zr2567     O2576   2.374       .  S
Zr2567     O2577   2.401       .  S
Zr2567     O2578   2.404       .  S
O2568      H2624   0.991   1_554  S
O2568      H2632   0.990       .  S
O2569      C2589   1.282       .  A
O2570      C2591   1.277       .  A
O2571     Zr2581   2.482       .  S
O2571      C2590   1.294       .  A
O2572      C2591   1.290       .  A
O2573      C2590   1.277       .  A
O2574     Zr2582   2.414       .  S
O2574      C2589   1.279       .  A
O2575     Zr2580   2.396       .  S
O2575     Zr2582   2.386       .  S
O2576     Zr2581   2.390       .  S
O2576     Zr2582   2.373       .  S
O2576      H2611   0.967       .  S
O2577     Zr2580   2.402       .  S
O2577     Zr2597   2.397       .  S
O2577      H2614   0.965       .  S
O2578     Zr2581   2.397       .  S
O2578     Zr2597   2.414       .  S
Zr2579     O2604   2.436       .  S
Zr2579     O2598   2.464       .  S
Zr2579     O2606   2.435       .  S
Zr2579     O2594   2.458       .  S
Zr2579     O2585   2.411       .  S
Zr2579     O2586   2.410       .  S
Zr2579     O2587   2.383       .  S
Zr2579     O2588   2.388       .  S
Zr2580     O2599   2.436       .  S
Zr2580     O2592   2.435       .  S
Zr2580     O2593   2.434       .  S
Zr2580     O2586   2.418       .  S
Zr2580     O2587   2.413       .  S
Zr2581     O2583   2.436       .  S
Zr2581     O2605   2.440       .  S
Zr2581     O2607   2.450       .  S
Zr2581     O2585   2.407       .  S
Zr2581     O2588   2.417       .  S
Zr2582     O2608   2.439       .  S
Zr2582     O2609   2.435       .  S
Zr2582     O2584   2.436       .  S
Zr2582     O2585   2.396       .  S
Zr2582     O2586   2.376       .  S
O2583      H2620   0.990       .  S
O2584      H2615   0.990       .  S
O2584      H2629   0.990       .  S
O2586      H2612   0.963       .  S
O2587     Zr2597   2.377       .  S
O2588     Zr2597   2.369       .  S
O2588      H2613   0.966       .  S
C2589      C3534   1.468       .  S
C2590      C3553   1.487       .  S
O2592      H2628   0.990       .  S
O2593      C2595   1.284       .  A
O2594      C2595   1.289       .  A
C2595      C3570   1.468       .  S
O2596     Zr2597   2.443       .  S
O2596      H2625   0.991       .  S
Zr2597     O2600   2.438       .  S
Zr2597     O2601   2.440       .  S
Zr2597     O2602   2.447       .  S
O2598      C2603   1.286       .  A
O2599      H2616   0.990       .  S
O2599      H2631   0.990       .  S
O2600      H2617   0.990       .  S
O2601      H2621   0.990       .  S
O2601      H2630   0.990       .  S
O2602      C2603   1.287       .  A
C2603      C3590   1.496       .  S
O2604      H2623   0.990       .  S
O2604      H2627   0.989       .  S
O2605      H2619   0.990       .  S
O2605      H2626   0.990       .  S
O2606      C2610   1.288       .  A
O2607      C2610   1.285       .  A
O2608      H2618   0.990       .  S
O2609      H2622   0.990       .  S
Zr2633     O2634   2.446       .  S
Zr2633     O2635   2.527       .  S
Zr2633     O2636   2.436       .  S
Zr2633     O2639   2.409       .  S
Zr2633     O2641   2.360       .  S
Zr2633     O2642   2.401       .  S
Zr2633     O2643   2.431       .  S
Zr2633     O2644   2.445       .  S
O2634      H2690   0.991       .  S
O2634      H2698   0.990       .  S
O2635      C2655   1.298       .  A
O2636      C2657   1.280       .  A
O2637     Zr2647   2.421       .  S
O2637      C2656   1.278       .  A
O2638     Zr2646   2.510       .  S
O2638      C2657   1.295       .  A
O2639      C2656   1.272       .  A
O2640     Zr2648   2.363       .  S
O2640      C2655   1.269       .  A
O2641     Zr2646   2.385       .  S
O2641     Zr2648   2.387       .  S
O2642     Zr2647   2.434       .  S
O2642     Zr2648   2.367       .  S
O2642      H2677   0.967       .  S
O2643     Zr2646   2.389       .  S
O2643     Zr2663   2.452       .  S
O2643      H2680   0.966       .  S
O2644     Zr2647   2.406       .  S
O2644     Zr2663   2.434       .  S
Zr2645     O2670   2.421       .  S
Zr2645     O2664   2.428       .  S
Zr2645     O2672   2.422       .  S
Zr2645     O2660   2.431       .  S
Zr2645     O2651   2.403       .  S
Zr2645     O2652   2.414       .  S
Zr2645     O2653   2.384       .  S
Zr2645     O2654   2.381       .  S
Zr2646     O2665   2.434       .  S
Zr2646     O2658   2.435       .  S
Zr2646     O2659   2.424       .  S
Zr2646     O2652   2.425       .  S
Zr2646     O2653   2.432       .  S
Zr2647     O2649   2.438       .  S
Zr2647     O2671   2.439       .  S
Zr2647     O2673   2.464       .  S
Zr2647     O2651   2.393       .  S
Zr2647     O2654   2.401       .  S
Zr2648     O2674   2.434       .  S
Zr2648     O2675   2.435       .  S
Zr2648     O2650   2.444       .  S
Zr2648     O2651   2.361       .  S
Zr2648     O2652   2.349       .  S
O2649      H2686   0.990       .  S
O2650      H2695   0.990       .  S
O2652      H2678   0.961       .  S
O2653     Zr2663   2.371       .  S
O2654     Zr2663   2.357       .  S
O2654      H2679   0.966       .  S
C2655      C3517   1.502       .  S
C2656      C3509   1.447       .  S
C2657      C3514   1.516       .  S
O2658      H2694   0.990       .  S
O2659      C2661   1.285       .  A
O2660      C2661   1.281       .  A
C2661      C3505   1.461       .  S
O2662     Zr2663   2.429       .  S
O2662      H2691   0.990       .  S
Zr2663     O2666   2.430       .  S
Zr2663     O2667   2.437       .  S
Zr2663     O2668   2.533       .  S
O2664      C2669   1.279       .  A
O2665      H2682   0.990       .  S
O2665      H2697   0.990       .  S
O2666      H2683   0.990       .  S
O2667      H2687   0.990       .  S
O2667      H2696   0.989       .  S
O2668      C2669   1.300       .  A
C2669      C3658   1.517       .  S
O2670      H2689   0.990       .  S
O2670      H2693   0.991       .  S
O2671      H2685   0.990       .  S
O2671      H2692   0.990       .  S
O2672      C2676   1.264       .  A
O2673      C2676   1.285       .  A
O2674      H2684   0.990       .  S
C2676      C3542   1.462       .  S
Zr2699     O2701   2.494       .  S
Zr2699     O2702   2.489       .  S
Zr2699     O2705   2.399       .  S
Zr2699     O2707   2.357       .  S
Zr2699     O2708   2.399       .  S
Zr2699     O2709   2.431       .  S
Zr2699     O2710   2.444       .  S
O2700      H2756   0.990       .  S
O2700      H2764   0.990       .  S
O2701      C2721   1.295       .  A
O2702      C2723   1.292       .  A
O2703     Zr2713   2.436       .  S
O2703      C2722   1.277       .  A
O2704     Zr2712   2.467       .  S
O2704      C2723   1.289       .  A
O2705      C2722   1.272       .  A
O2706     Zr2714   2.372       .  S
O2706      C2721   1.274       .  A
O2707     Zr2712   2.376       .  S
O2707     Zr2714   2.367       .  S
O2708     Zr2713   2.401       .  S
O2708     Zr2714   2.374       .  S
O2708      H2743   0.964       .  S
O2709     Zr2712   2.380       .  S
O2709     Zr2729   2.456       .  S
O2709      H2746   0.966       .  S
O2710     Zr2713   2.399       .  S
O2710     Zr2729   2.431       .  S
Zr2711     O2736   2.442       .  S
Zr2711     O2730   2.423       .  S
Zr2711     O2738   2.423       .  S
Zr2711     O2726   2.403       .  S
Zr2711     O2717   2.389       .  S
Zr2711     O2718   2.411       .  S
Zr2711     O2719   2.385       .  S
Zr2711     O2720   2.370       .  S
Zr2712     O2731   2.432       .  S
Zr2712     O2724   2.439       .  S
Zr2712     O2725   2.393       .  S
Zr2712     O2718   2.417       .  S
Zr2712     O2719   2.414       .  S
Zr2713     O2737   2.445       .  S
Zr2713     O2739   2.442       .  S
Zr2713     O2717   2.391       .  S
Zr2713     O2720   2.394       .  S
Zr2714     O2740   2.430       .  S
Zr2714     O2741   2.434       .  S
Zr2714     O2716   2.441       .  S
Zr2714     O2717   2.374       .  S
Zr2714     O2718   2.349       .  S
O2716      H2747   0.990       .  S
O2716      H2761   0.990       .  S
O2718      H2744   0.963       .  S
O2719     Zr2729   2.367       .  S
O2720     Zr2729   2.374       .  S
O2720      H2745   0.966       .  S
C2721      C3497   1.481       .  S
C2723      C3513   1.514       .  S
O2724      H2760   0.991       .  S
O2725      C2727   1.276       .  A
O2726      C2727   1.280       .  A
C2727      C3493   1.435       .  S
O2728      H2757   0.990       .  S
Zr2729     O2734   2.519       .  S
O2730      C2735   1.280       .  A
O2731      H2748   0.990       .  S
O2731      H2763   0.990       .  S
O2732      H2749   0.990       .  S
O2733      H2753   0.990       .  S
O2733      H2762   0.989       .  S
O2734      C2735   1.297       .  A
C2735      C3646   1.513   1_545  S
O2736      H2755   0.991       .  S
O2736      H2759   0.991       .  S
O2737      H2751   0.990       .  S
O2737      H2758   0.990       .  S
O2738      C2742   1.277       .  A
O2739      C2742   1.284       .  A
O2740      H2750   0.990       .  S
O2741      H2754   0.990       .  S
C2742      C3578   1.458       .  S
Zr2765     O2766   2.439       .  S
Zr2765     O2767   2.448       .  S
Zr2765     O2768   2.418       .  S
Zr2765     O2771   2.405       .  S
Zr2765     O2773   2.369       .  S
Zr2765     O2774   2.377       .  S
Zr2765     O2775   2.405       .  S
Zr2765     O2776   2.417       .  S
O2766      H2822   0.991       .  S
O2766      H2830   0.990       .  S
O2767      C2787   1.287       .  A
O2768      C2789   1.283       .  A
O2769     Zr2779   2.433       .  S
O2769      C2788   1.284       .  A
O2770     Zr2778   2.462       .  S
O2770      C2789   1.288       .  A
O2771      C2788   1.280       .  A
O2772     Zr2780   2.410       .  S
O2772      C2787   1.280       .  A
O2773     Zr2778   2.379       .  S
O2773     Zr2780   2.385       .  S
O2774     Zr2779   2.384       .  S
O2774     Zr2780   2.366       .  S
O2774      H2809   0.966       .  S
O2775     Zr2778   2.383       .  S
O2775     Zr2795   2.420       .  S
O2775      H2812   0.966       .  S
O2776     Zr2779   2.399       .  S
O2776     Zr2795   2.431       .  S
Zr2777     O2802   2.419       .  S
Zr2777     O2796   2.401       .  S
Zr2777     O2804   2.424       .  S
Zr2777     O2792   2.407       .  S
Zr2777     O2783   2.386       .  S
Zr2777     O2784   2.393       .  S
Zr2777     O2785   2.385       .  S
Zr2777     O2786   2.373       .  S
Zr2778     O2797   2.439   1_655  S
Zr2778     O2790   2.436       .  S
Zr2778     O2791   2.402       .  S
Zr2778     O2784   2.403       .  S
Zr2778     O2785   2.401       .  S
Zr2779     O2781   2.435       .  S
Zr2779     O2803   2.429       .  S
Zr2779     O2805   2.443       .  S
Zr2779     O2783   2.390       .  S
Zr2779     O2786   2.381       .  S
Zr2780     O2806   2.436       .  S
Zr2780     O2807   2.440       .  S
Zr2780     O2782   2.434       .  S
Zr2780     O2783   2.399       .  S
Zr2780     O2784   2.375       .  S
O2781      H2818   0.990       .  S
O2782      H2813   0.990       .  S
O2782      H2827   0.990       .  S
O2784      H2810   0.966       .  S
O2785     Zr2795   2.362       .  S
O2786     Zr2795   2.334       .  S
O2786      H2811   0.957       .  S
C2787      C3489   1.477       .  S
C2788      C3481   1.460       .  S
C2789      C3485   1.485       .  S
O2790      H2826   0.990       .  S
O2791      C2793   1.281       .  A
O2792      C2793   1.282       .  A
C2793      C3477   1.452   1_655  S
O2794     Zr2795   2.438       .  S
O2794      H2823   0.990       .  S
Zr2795     O2798   2.434       .  S
Zr2795     O2799   2.438       .  S
Zr2795     O2800   2.532       .  S
O2796      C2801   1.279       .  A
O2797      H2814   0.990       .  S
O2797      H2829   0.990       .  S
O2798      H2815   0.990   1_655  S
O2799      H2819   0.990       .  S
O2799      H2828   0.990       .  S
O2800      C2801   1.304       .  A
C2801      C3614   1.506       .  S
O2802      H2821   0.989       .  S
O2802      H2825   0.990       .  S
O2803      H2817   0.990       .  S
O2803      H2824   0.990       .  S
O2804      C2808   1.286       .  A
O2805      C2808   1.287       .  A
O2806      H2816   0.990       .  S
O2807      H2820   0.990       .  S
C2808      C3562   1.479       .  S
Zr2831     O2832   2.444       .  S
Zr2831     O2833   2.501       .  S
Zr2831     O2834   2.404       .  S
Zr2831     O2837   2.365       .  S
Zr2831     O2839   2.367       .  S
Zr2831     O2840   2.361       .  S
Zr2831     O2841   2.419       .  S
Zr2831     O2842   2.422       .  S
O2832      H2888   0.991       .  S
O2832      H2896   0.990       .  S
O2833      C2853   1.297       .  A
O2834      C2855   1.278       .  A
O2835     Zr2845   2.472       .  S
O2835      C2854   1.287       .  A
O2836     Zr2844   2.483       .  S
O2836      C2855   1.292       .  A
O2837      C2854   1.274       .  A
O2838     Zr2846   2.389       .  S
O2838      C2853   1.275       .  A
O2839     Zr2844   2.399       .  S
O2839     Zr2846   2.372       .  S
O2840     Zr2845   2.382       .  S
O2840     Zr2846   2.395       .  S
O2840      H2875   0.964       .  S
O2841     Zr2844   2.401       .  S
O2841     Zr2861   2.450       .  S
O2841      H2878   0.966       .  S
O2842     Zr2845   2.379       .  S
O2842     Zr2861   2.433       .  S
Zr2843     O2868   2.436       .  S
Zr2843     O2862   2.412       .  S
Zr2843     O2870   2.431       .  S
Zr2843     O2858   2.404       .  S
Zr2843     O2849   2.351       .  S
Zr2843     O2850   2.419       .  S
Zr2843     O2851   2.372       .  S
Zr2843     O2852   2.390       .  S
Zr2844     O2863   2.437       .  S
Zr2844     O2856   2.434       .  S
Zr2844     O2857   2.445       .  S
Zr2844     O2850   2.405       .  S
Zr2844     O2851   2.419       .  S
Zr2845     O2847   2.436       .  S
Zr2845     O2869   2.438       .  S
Zr2845     O2871   2.431       .  S
Zr2845     O2849   2.375       .  S
Zr2845     O2852   2.407       .  S
Zr2846     O2872   2.432       .  S
Zr2846     O2873   2.437       .  S
Zr2846     O2848   2.437       .  S
Zr2846     O2849   2.349       .  S
Zr2846     O2850   2.383       .  S
O2847      H2884   0.990       .  S
O2848      H2879   0.990       .  S
O2848      H2893   0.990       .  S
O2850      H2876   0.964       .  S
O2851     Zr2861   2.375       .  S
O2852     Zr2861   2.372       .  S
O2852      H2877   0.966       .  S
C2853      C3469   1.488       .  S
C2854      C3473   1.474       .  S
C2855      C3486   1.482       .  S
O2856      H2892   0.990       .  S
O2857      C2859   1.286       .  A
O2858      C2859   1.277       .  A
C2859      C3465   1.452   1_655  S
O2860     Zr2861   2.435       .  S
O2860      H2889   0.990       .  S
Zr2861     O2864   2.434       .  S
Zr2861     O2865   2.438       .  S
Zr2861     O2866   2.527       .  S
O2862      C2867   1.277       .  A
O2863      H2880   0.990   1_655  S
O2863      H2895   0.990       .  S
O2864      H2881   0.990       .  S
O2865      H2885   0.990       .  S
O2865      H2894   0.990       .  S
O2866      C2867   1.299       .  A
C2867      C3594   1.525       .  S
O2868      H2887   0.990       .  S
O2868      H2891   0.989       .  S
O2869      H2883   0.990       .  S
O2869      H2890   0.990       .  S
O2870      C2874   1.287       .  A
O2871      C2874   1.281       .  A
O2872      H2882   0.990       .  S
O2873      H2886   0.990       .  S
C2874      C3526   1.452       .  S
Zr2897     O2898   2.443       .  S
Zr2897     O2899   2.420       .  S
Zr2897     O2900   2.407       .  S
O2898      H2954   0.989       .  S
O2898      H2962   0.990       .  S
O2899      C2919   1.278       .  A
O2900      C2921   1.280       .  A
O2901     Zr2911   2.425       .  S
O2901      C2920   1.283       .  A
O2902      C2921   1.288       .  A
O2903      C2920   1.287       .  A
O2904     Zr2912   2.474       .  S
O2905     Zr2910   2.408       .  S
O2905     Zr2912   2.361       .  S
O2906     Zr2911   2.411       .  S
O2906     Zr2912   2.374       .  S
O2906      H2941   0.966       .  S
O2907     Zr2910   2.422       .  S
O2907     Zr2927   2.388       .  S
O2908     Zr2911   2.394       .  S
O2908     Zr2927   2.355       .  S
Zr2909     O2934   2.440       .  S
Zr2909     O2928   2.433       .  S
Zr2909     O2936   2.362       .  S
Zr2909     O2924   2.371       .  S
Zr2909     O2915   2.400       .  S
Zr2909     O2916   2.401       .  S
Zr2909     O2917   2.365       .  S
Zr2909     O2918   2.370       .  S
Zr2910     O2922   2.436       .  S
Zr2910     O2923   2.510       .  S
Zr2910     O2916   2.390       .  S
Zr2910     O2917   2.369       .  S
Zr2911     O2913   2.440       .  S
Zr2911     O2935   2.440       .  S
Zr2911     O2937   2.470       .  S
Zr2911     O2915   2.381       .  S
Zr2911     O2918   2.388       .  S
Zr2912     O2938   2.434       .  S
Zr2912     O2939   2.434       .  S
Zr2912     O2914   2.436       .  S
Zr2912     O2915   2.415       .  S
Zr2912     O2916   2.424       .  S
O2913      H2950   0.990       .  S
O2914      H2945   0.990       .  S
O2914      H2959   0.990       .  S
O2916      H2942   0.966       .  S
O2917     Zr2927   2.370       .  S
O2918     Zr2927   2.383       .  S
O2918      H2943   0.966       .  S
C2919      C3518   1.488       .  S
C2920      C3501   1.458       .  S
C2921      C2987   1.471       .  S
O2923      C2925   1.299       .  A
O2924      C2925   1.273       .  A
C2925      C3470   1.491       .  S
O2926     Zr2927   2.434       .  S
O2926      H2955   0.990       .  S
Zr2927     O2930   2.428       .  S
Zr2927     O2931   2.438       .  S
Zr2927     O2932   2.384       .  S
O2928      C2933   1.282       .  A
O2929      H2946   0.990       .  S
O2929      H2961   0.990       .  S
O2930      H2947   0.990       .  S
O2931      H2951   0.990       .  S
O2931      H2960   0.990       .  S
O2932      C2933   1.276       .  A
C2933      C3482   1.467       .  S
O2934      H2953   0.990       .  S
O2934      H2957   0.990       .  S
O2935      H2949   0.990       .  S
O2935      H2956   0.990       .  S
O2936      C2940   1.272       .  A
O2937      C2940   1.288       .  A
O2938      H2948   0.990       .  S
O2939      H2952   0.990       .  S
C2940      C3006   1.459       .  S
Zr2963     O2964   2.435       .  S
Zr2963     O2965   2.409       .  S
Zr2963     O2966   2.417       .  S
Zr2963     O2969   2.422       .  S
Zr2963     O2971   2.379       .  S
Zr2963     O2972   2.380       .  S
Zr2963     O2973   2.400       .  S
Zr2963     O2974   2.392       .  S
O2964      H3020   0.989       .  S
O2964      H3028   0.990       .  S
O2965      C2985   1.278       .  A
O2966      C2987   1.285       .  A
O2967     Zr2977   2.384       .  S
O2967      C2986   1.276       .  A
O2968     Zr2976   2.453       .  S
O2968      C2987   1.287       .  A
O2969      C2986   1.284       .  A
O2970     Zr2978   2.457       .  S
O2970      C2985   1.289       .  A
O2971     Zr2976   2.395       .  S
O2971     Zr2978   2.361       .  S
O2972     Zr2977   2.389       .  S
O2972     Zr2978   2.361       .  S
O2972      H3007   0.966       .  S
O2973     Zr2976   2.410       .  S
O2973     Zr2993   2.397       .  S
O2973      H3010   0.966       .  S
O2974     Zr2977   2.398       .  S
O2974     Zr2993   2.384       .  S
Zr2975     O3000   2.438       .  S
Zr2975     O2994   2.424       .  S
Zr2975     O3002   2.408       .  S
Zr2975     O2990   2.389       .  S
Zr2975     O2981   2.388       .  S
Zr2975     O2982   2.401       .  S
Zr2975     O2983   2.371       .  S
Zr2975     O2984   2.366       .  S
Zr2976     O2995   2.437       .  S
Zr2976     O2988   2.437       .  S
Zr2976     O2989   2.473       .  S
Zr2976     O2982   2.393       .  S
Zr2976     O2983   2.384       .  S
Zr2977     O2979   2.441       .  S
Zr2977     O3001   2.439       .  S
Zr2977     O3003   2.427       .  S
Zr2977     O2981   2.387       .  S
Zr2977     O2984   2.380       .  S
Zr2978     O3004   2.430       .  S
Zr2978     O3005   2.438       .  S
Zr2978     O2980   2.438       .  S
Zr2978     O2981   2.412       .  S
Zr2978     O2982   2.398       .  S
O2979      H3016   0.991       .  S
O2980      H3011   0.991       .  S
O2980      H3025   0.990       .  S
O2982      H3008   0.966       .  S
O2983     Zr2993   2.379       .  S
O2984     Zr2993   2.376       .  S
O2984      H3009   0.966       .  S
C2985      C3498   1.477       .  S
C2986      C3510   1.451       .  S
O2988      H3024   0.991       .  S
O2989      C2991   1.292       .  A
O2990      C2991   1.278       .  A
C2991      C3490   1.479       .  S
O2992     Zr2993   2.435       .  S
O2992      H3021   0.991       .  S
Zr2993     O2996   2.432       .  S
Zr2993     O2997   2.436       .  S
Zr2993     O2998   2.420       .  S
O2994      C2999   1.283       .  A
O2995      H3012   0.990       .  S
O2995      H3027   0.990       .  S
O2996      H3013   0.990       .  S
O2997      H3017   0.990       .  S
O2997      H3026   0.990       .  S
O2998      C2999   1.281       .  A
C2999      C3474   1.467       .  S
O3000      H3019   0.990       .  S
O3000      H3023   0.990       .  S
O3001      H3015   0.990       .  S
O3001      H3022   0.990       .  S
O3002      C3006   1.283       .  A
O3003      C3006   1.279       .  A
O3004      H3014   0.990       .  S
O3005      H3018   0.990       .  S
Zr3029     O3030   2.439       .  S
Zr3029     O3031   2.390   1_545  S
Zr3029     O3032   2.426       .  S
Zr3029     O3035   2.423   1_545  S
Zr3029     O3037   2.389       .  S
Zr3029     O3038   2.387       .  S
Zr3029     O3039   2.407       .  S
Zr3029     O3040   2.370       .  S
O3030      H3086   0.990       .  S
O3030      H3094   0.990       .  S
O3031      C3051   1.271   1_565  A
O3032      C3053   1.269       .  A
O3033     Zr3043   2.432   1_565  S
O3033      C3052   1.282       .  A
O3034     Zr3042   2.395       .  S
O3034      C3053   1.272       .  A
O3035      C3052   1.287       .  A
O3036     Zr3044   2.542       .  S
O3036      C3051   1.298       .  A
O3037     Zr3042   2.390       .  S
O3037     Zr3044   2.352       .  S
O3038     Zr3043   2.401       .  S
O3038     Zr3044   2.386       .  S
O3038      H3073   0.966   1_545  S
O3039     Zr3042   2.432       .  S
O3039     Zr3059   2.358       .  S
O3039      H3076   0.953       .  S
O3040     Zr3043   2.373       .  S
O3040     Zr3059   2.349       .  S
Zr3041     O3066   2.438       .  S
Zr3041     O3060   2.495       .  S
Zr3041     O3068   2.453       .  S
Zr3041     O3056   2.416       .  S
Zr3041     O3047   2.430       .  S
Zr3041     O3048   2.439       .  S
Zr3041     O3049   2.368       .  S
Zr3041     O3050   2.373       .  S
Zr3042     O3061   2.442       .  S
Zr3042     O3054   2.435       .  S
Zr3042     O3055   2.425       .  S
Zr3042     O3048   2.392       .  S
Zr3042     O3049   2.389       .  S
Zr3043     O3045   2.440   1_545  S
Zr3043     O3067   2.436   1_545  S
Zr3043     O3069   2.433       .  S
Zr3043     O3047   2.384       .  S
Zr3043     O3050   2.409       .  S
Zr3044     O3070   2.437   1_545  S
Zr3044     O3071   2.438       .  S
Zr3044     O3046   2.438       .  S
Zr3044     O3047   2.453       .  S
Zr3044     O3048   2.443       .  S
O3045      H3082   0.991       .  S
O3046      H3077   0.990       .  S
O3046      H3091   0.990       .  S
O3048      H3074   0.966       .  S
O3049     Zr3059   2.380       .  S
O3050     Zr3059   2.356       .  S
O3050      H3075   0.963       .  S
C3051      C3574   1.511   1_545  S
C3052      C3641   1.450       .  S
C3053      C3494   1.446       .  S
O3054      H3090   0.990       .  S
O3055      C3057   1.278       .  A
O3056      C3057   1.281       .  A
C3057      C3453   1.456       .  S
O3058     Zr3059   2.439       .  S
O3058      H3087   0.990       .  S
Zr3059     O3062   2.437       .  S
Zr3059     O3063   2.444       .  S
Zr3059     O3064   2.380       .  S
O3060      C3065   1.295       .  A
O3061      H3078   0.991       .  S
O3061      H3093   0.990       .  S
O3062      H3079   0.990       .  S
O3063      H3083   0.990       .  S
O3063      H3092   0.990       .  S
O3064      C3065   1.274       .  A
C3065      C3462   1.491       .  S
O3066      H3085   0.991       .  S
O3066      H3089   0.990       .  S
O3067      H3081   0.990       .  S
O3067      H3088   0.990       .  S
O3068      C3072   1.289       .  A
O3069      C3072   1.283       .  A
O3070      H3080   0.990       .  S
O3071      H3084   0.990       .  S
C3072      C3458   1.477       .  S
Zr3095     O3096   2.443       .  S
Zr3095     O3097   2.448       .  S
Zr3095     O3098   2.411       .  S
Zr3095     O3101   2.477       .  S
Zr3095     O3103   2.380       .  S
Zr3095     O3104   2.390       .  S
Zr3095     O3105   2.409       .  S
Zr3095     O3106   2.362       .  S
O3096      H3152   0.990       .  S
O3096      H3160   0.991       .  S
O3097      C3117   1.287       .  A
O3098      C3119   1.282       .  A
O3099     Zr3109   2.406   1_565  S
O3099      C3118   1.277   1_565  A
O3100     Zr3108   2.414       .  S
O3100      C3119   1.279       .  A
O3101      C3118   1.296       .  A
O3102     Zr3110   2.516       .  S
O3102      C3117   1.298       .  A
O3103     Zr3108   2.399       .  S
O3103     Zr3110   2.350       .  S
O3104     Zr3109   2.419       .  S
O3104     Zr3110   2.385       .  S
O3104      H3139   0.967   1_545  S
O3105     Zr3108   2.409       .  S
O3105     Zr3125   2.378       .  S
O3105      H3142   0.966       .  S
O3106     Zr3109   2.389       .  S
O3106     Zr3125   2.349       .  S
Zr3107     O3132   2.441       .  S
Zr3107     O3126   2.471       .  S
Zr3107     O3134   2.404       .  S
Zr3107     O3122   2.412       .  S
Zr3107     O3113   2.420       .  S
Zr3107     O3114   2.421       .  S
Zr3107     O3115   2.378       .  S
Zr3107     O3116   2.374       .  S
Zr3108     O3127   2.435       .  S
Zr3108     O3120   2.433       .  S
Zr3108     O3121   2.467       .  S
Zr3108     O3114   2.388       .  S
Zr3108     O3115   2.377       .  S
Zr3109     O3111   2.442   1_545  S
Zr3109     O3133   2.432   1_545  S
Zr3109     O3135   2.473       .  S
Zr3109     O3113   2.376       .  S
Zr3109     O3116   2.380       .  S
Zr3110     O3136   2.436   1_545  S
Zr3110     O3137   2.436   1_545  S
Zr3110     O3112   2.437       .  S
Zr3110     O3113   2.445       .  S
Zr3110     O3114   2.428       .  S
O3111      H3148   0.990       .  S
O3112      H3143   0.990       .  S
O3112      H3157   0.990       .  S
O3114      H3140   0.966       .  S
O3115     Zr3125   2.380       .  S
O3116     Zr3125   2.381       .  S
O3116      H3141   0.964       .  S
C3117      C3558   1.532   1_545  S
C3118      C3618   1.467   1_545  S
C3119      C3478   1.456       .  S
O3120      H3156   0.990       .  S
O3121      C3123   1.290       .  A
O3122      C3123   1.280       .  A
C3123      C3449   1.482       .  S
O3124     Zr3125   2.437       .  S
O3124      H3153   0.990       .  S
Zr3125     O3128   2.435       .  S
Zr3125     O3129   2.441       .  S
Zr3125     O3130   2.373       .  S
O3126      C3131   1.291       .  A
O3127      H3144   0.990       .  S
O3127      H3159   0.990       .  S
O3128      H3145   0.990       .  S
O3129      H3149   0.990       .  S
O3129      H3158   0.990       .  S
O3130      C3131   1.274       .  A
C3131      C3445   1.474       .  S
O3132      H3151   0.990       .  S
O3132      H3155   0.990       .  S
O3133      H3147   0.990       .  S
O3133      H3154   0.990       .  S
O3134      C3138   1.279       .  A
O3135      C3138   1.288       .  A
O3136      H3146   0.990       .  S
O3137      H3150   0.990       .  S
C3138      C3457   1.473       .  S
Zr3161     O3163   2.371       .  S
Zr3161     O3164   2.429       .  S
Zr3161     O3167   2.431       .  S
Zr3161     O3169   2.375       .  S
Zr3161     O3170   2.386       .  S
Zr3161     O3171   2.397       .  S
Zr3161     O3172   2.394       .  S
O3162      H3218   0.988       .  S
O3162      H3226   0.990       .  S
O3163      C3183   1.269       .  A
O3164      C3185   1.289       .  A
O3165     Zr3175   2.399       .  S
O3165      C3184   1.263       .  A
O3166     Zr3174   2.389       .  S
O3166      C3185   1.274       .  A
O3167      C3184   1.280       .  A
O3168     Zr3176   2.578       .  S
O3168      C3183   1.309       .  A
O3169     Zr3174   2.392       .  S
O3169     Zr3176   2.323       .  S
O3170     Zr3175   2.424       .  S
O3170     Zr3176   2.331       .  S
O3170      H3205   0.966       .  S
O3171     Zr3174   2.413       .  S
O3171     Zr3191   2.386       .  S
O3171      H3208   0.966       .  S
O3172     Zr3175   2.423       .  S
O3172     Zr3191   2.372       .  S
Zr3173     O3198   2.442       .  S
Zr3173     O3192   2.518       .  S
Zr3173     O3200   2.432       .  S
Zr3173     O3188   2.369       .  S
Zr3173     O3179   2.432       .  S
Zr3173     O3180   2.438       .  S
Zr3173     O3181   2.360       .  S
Zr3173     O3182   2.359       .  S
Zr3174     O3193   2.431       .  S
Zr3174     O3186   2.433       .  S
Zr3174     O3187   2.448       .  S
Zr3174     O3180   2.385       .  S
Zr3174     O3181   2.373       .  S
Zr3175     O3177   2.435       .  S
Zr3175     O3199   2.432       .  S
Zr3175     O3201   2.466       .  S
Zr3175     O3179   2.365       .  S
Zr3175     O3182   2.405       .  S
Zr3176     O3202   2.437       .  S
Zr3176     O3203   2.431       .  S
Zr3176     O3178   2.434       .  S
Zr3176     O3179   2.473       .  S
Zr3176     O3180   2.417       .  S
O3177      H3214   0.990       .  S
O3178      H3209   0.990       .  S
O3178      H3223   0.990       .  S
O3180      H3206   0.963       .  S
O3181     Zr3191   2.380       .  S
O3182     Zr3191   2.389       .  S
O3182      H3207   0.964       .  S
C3183      C3538   1.529       .  S
C3185      C3506   1.457       .  S
O3186      H3222   0.991       .  S
O3187      C3189   1.284       .  A
O3188      C3189   1.274       .  A
C3189      C3433   1.455       .  S
O3190      H3219   0.990       .  S
Zr3191     O3194   2.439   1_556  S
Zr3191     O3196   2.389   1_556  S
O3192      C3197   1.302       .  A
O3193      H3210   0.990       .  S
O3193      H3225   0.990       .  S
O3195      H3215   0.990       .  S
O3195      H3224   0.988       .  S
O3196      C3197   1.274   1_554  A
C3197      C3442   1.497   1_556  S
O3198      H3217   0.990       .  S
O3198      H3221   0.990       .  S
O3199      H3213   0.990       .  S
O3199      H3220   0.990       .  S
O3200      C3204   1.285       .  A
O3201      C3204   1.287       .  A
O3202      H3212   0.990       .  S
O3203      H3216   0.990       .  S
C3204      C3438   1.489       .  S
Zr3227     O3228   2.438       .  S
Zr3227     O3229   2.456       .  S
Zr3227     O3230   2.417       .  S
Zr3227     O3233   2.425       .  S
Zr3227     O3235   2.370       .  S
Zr3227     O3236   2.389       .  S
Zr3227     O3237   2.426       .  S
Zr3227     O3238   2.393       .  S
O3228      H3284   0.990       .  S
O3228      H3292   0.991       .  S
O3229      C3249   1.287       .  A
O3230      C3251   1.282       .  A
O3231     Zr3241   2.446       .  S
O3231      C3250   1.285       .  A
O3232     Zr3240   2.453       .  S
O3232      C3251   1.284       .  A
O3233      C3250   1.284       .  A
O3234     Zr3242   2.497       .  S
O3235     Zr3240   2.398       .  S
O3236     Zr3241   2.428       .  S
O3236      H3271   0.966       .  S
O3237     Zr3240   2.411       .  S
O3237     Zr3257   2.377       .  S
O3237      H3274   0.963       .  S
O3238     Zr3241   2.384       .  S
O3238     Zr3257   2.368       .  S
Zr3239     O3258   2.473       .  S
Zr3239     O3266   2.417       .  S
Zr3239     O3245   2.412       .  S
Zr3239     O3247   2.370       .  S
Zr3239     O3248   2.375       .  S
Zr3240     O3259   2.444       .  S
Zr3240     O3247   2.380       .  S
Zr3241     O3243   2.440       .  S
Zr3241     O3265   2.436       .  S
Zr3241     O3267   2.487       .  S
Zr3241     O3245   2.391       .  S
Zr3241     O3248   2.404       .  S
Zr3242     O3268   2.438       .  S
Zr3242     O3269   2.434       .  S
Zr3242     O3244   2.432       .  S
Zr3242     O3246   2.431       .  S
O3243      H3280   0.990       .  S
O3244      H3275   0.990       .  S
O3244      H3289   0.989       .  S
O3246      H3272   0.970       .  S
O3247     Zr3257   2.368       .  S
O3248     Zr3257   2.359       .  S
O3248      H3273   0.964       .  S
C3249      C3522   1.508       .  S
C3250      C3601   1.469       .  S
C3251      C3466   1.468       .  S
O3252      H3288   0.990       .  S
O3253      C3255   1.288       .  A
O3254      C3255   1.275       .  A
C3255      C3429   1.468       .  S
O3256     Zr3257   2.434       .  S
O3256      H3285   0.990       .  S
Zr3257     O3260   2.437       .  S
Zr3257     O3261   2.441       .  S
Zr3257     O3262   2.405       .  S
O3258      C3263   1.290       .  A
O3259      H3276   0.990       .  S
O3259      H3291   0.990       .  S
O3260      H3277   0.991       .  S
O3261      H3281   0.990       .  S
O3261      H3290   0.990       .  S
O3262      C3263   1.279       .  A
C3263      C3426   1.489       .  S
O3264      H3283   0.990       .  S
O3264      H3287   0.990       .  S
O3265      H3279   0.990       .  S
O3265      H3286   0.990       .  S
O3266      C3270   1.282       .  A
O3267      C3270   1.292       .  A
O3268      H3278   0.990       .  S
O3269      H3282   0.990       .  S
C3270      C3437   1.483       .  S
Zr3293     O3294   2.444       .  S
Zr3293     O3295   2.425       .  S
Zr3293     O3296   2.392       .  S
Zr3293     O3299   2.384       .  S
Zr3293     O3301   2.364       .  S
Zr3293     O3302   2.380       .  S
Zr3293     O3303   2.399       .  S
Zr3293     O3304   2.400       .  S
O3294      H3350   0.990       .  S
O3294      H3358   0.990       .  S
O3295      C3315   1.282       .  A
O3296      C3317   1.279       .  A
O3297     Zr3307   2.465       .  S
O3297      C3316   1.291       .  A
O3298     Zr3306   2.478       .  S
O3298      C3317   1.290       .  A
O3299      C3316   1.276       .  A
O3300     Zr3308   2.394       .  S
O3300      C3315   1.277       .  A
O3301     Zr3306   2.387       .  S
O3301     Zr3308   2.382       .  S
O3302     Zr3307   2.395       .  S
O3302     Zr3308   2.372       .  S
O3302      H3337   0.966       .  S
O3303     Zr3306   2.399       .  S
O3303     Zr3323   2.400       .  S
O3303      H3340   0.966       .  S
O3304     Zr3307   2.400       .  S
O3304     Zr3323   2.404       .  S
Zr3305     O3330   2.444       .  S
Zr3305     O3324   2.420       .  S
Zr3305     O3332   2.437       .  S
Zr3305     O3320   2.409       .  S
Zr3305     O3311   2.397       .  S
Zr3305     O3312   2.404       .  S
Zr3305     O3313   2.384       .  S
Zr3305     O3314   2.371       .  S
Zr3306     O3325   2.437       .  S
Zr3306     O3318   2.437       .  S
Zr3306     O3319   2.419       .  S
Zr3306     O3312   2.423       .  S
Zr3306     O3313   2.404       .  S
Zr3307     O3309   2.437       .  S
Zr3307     O3331   2.437       .  S
Zr3307     O3333   2.468       .  S
Zr3307     O3311   2.407       .  S
Zr3307     O3314   2.402       .  S
Zr3308     O3334   2.436       .  S
Zr3308     O3335   2.436       .  S
Zr3308     O3310   2.437       .  S
Zr3308     O3311   2.398       .  S
Zr3308     O3312   2.363       .  S
O3309      H3346   0.990       .  S
O3310      H3341   0.990       .  S
O3310      H3355   0.990       .  S
O3312      H3338   0.965       .  S
O3313     Zr3323   2.371       .  S
O3314     Zr3323   2.367       .  S
O3314      H3339   0.965       .  S
C3315      C3454   1.464       .  S
C3316      C3446   1.471       .  S
C3317      C3402   1.482       .  S
O3318      H3354   0.990       .  S
O3319      C3321   1.281       .  A
O3320      C3321   1.281       .  A
C3321      C3434   1.443       .  S
O3322     Zr3323   2.438       .  S
O3322      H3351   0.990       .  S
Zr3323     O3326   2.441       .  S
Zr3323     O3327   2.439       .  S
Zr3323     O3328   2.447       .  S
O3324      C3329   1.281       .  A
O3325      H3342   0.990       .  S
O3325      H3357   0.990       .  S
O3326      H3343   0.990       .  S
O3327      H3347   0.990       .  S
O3327      H3356   0.990       .  S
O3328      C3329   1.287       .  A
C3329      C3425   1.481       .  S
O3330      H3349   0.990       .  S
O3330      H3353   0.989       .  S
O3331      H3345   0.990       .  S
O3331      H3352   0.990       .  S
O3332      C3336   1.290       .  A
O3333      C3336   1.288       .  A
O3334      H3344   0.990       .  S
O3335      H3348   0.990       .  S
C3336      C3383   1.496       .  S
Zr3359     O3361   2.449       .  S
Zr3359     O3365   2.391       .  S
Zr3359     O3367   2.375       .  S
Zr3359     O3368   2.369       .  S
Zr3359     O3369   2.404       .  S
Zr3359     O3370   2.406       .  S
O3360      H3416   0.990       .  S
O3360      H3424   0.990       .  S
O3361      C3381   1.287       .  A
O3362      C3383   1.275       .  A
O3363     Zr3373   2.518       .  S
O3363      C3382   1.301       .  A
O3364      C3383   1.300       .  A
O3365      C3382   1.275       .  A
O3366     Zr3374   2.374       .  S
O3366      C3381   1.273       .  A
O3367     Zr3372   2.398       .  S
O3367     Zr3374   2.396       .  S
O3368     Zr3373   2.386       .  S
O3368     Zr3374   2.384       .  S
O3368      H3403   0.967       .  S
O3369     Zr3372   2.392       .  S
O3369     Zr3389   2.409       .  S
O3369      H3406   0.966       .  S
O3370     Zr3373   2.389       .  S
O3370     Zr3389   2.418       .  S
Zr3371     O3396   2.446       .  S
Zr3371     O3390   2.424       .  S
Zr3371     O3398   2.409       .  S
Zr3371     O3386   2.412       .  S
Zr3371     O3377   2.390       .  S
Zr3371     O3378   2.397       .  S
Zr3371     O3379   2.384       .  S
Zr3371     O3380   2.381       .  S
Zr3372     O3391   2.434       .  S
Zr3372     O3384   2.433       .  S
Zr3372     O3385   2.481       .  S
Zr3372     O3378   2.415       .  S
Zr3372     O3379   2.407       .  S
Zr3373     O3375   2.435       .  S
Zr3373     O3397   2.434       .  S
Zr3373     O3399   2.472       .  S
Zr3373     O3377   2.417       .  S
Zr3373     O3380   2.411       .  S
Zr3374     O3400   2.435       .  S
Zr3374     O3401   2.439       .  S
Zr3374     O3376   2.444       .  S
Zr3374     O3377   2.384       .  S
Zr3374     O3378   2.367       .  S
O3375      H3412   0.990       .  S
O3376      H3407   0.991       .  S
O3376      H3421   0.990       .  S
O3378      H3404   0.965       .  S
O3379     Zr3389   2.369       .  S
O3380     Zr3389   2.365       .  S
O3380      H3405   0.965       .  S
C3381      C3430   1.465       .  S
C3382      C3441   1.506       .  S
O3384      H3420   0.990       .  S
O3385      C3387   1.295       .  A
O3386      C3387   1.283       .  A
C3387      C3450   1.477       .  S
O3388     Zr3389   2.441       .  S
O3388      H3417   0.990       .  S
Zr3389     O3392   2.439       .  S
Zr3389     O3393   2.443       .  S
Zr3389     O3394   2.469       .  S
O3390      C3395   1.281       .  A
O3391      H3408   0.990       .  S
O3391      H3423   0.990       .  S
O3392      H3409   0.990       .  S
O3393      H3413   0.990       .  S
O3393      H3422   0.990       .  S
O3394      C3395   1.292       .  A
C3395      C3461   1.487       .  S
O3396      H3415   0.990       .  S
O3396      H3419   0.991       .  S
O3397      H3411   0.990       .  S
O3397      H3418   0.990       .  S
O3398      C3402   1.284       .  A
O3399      C3402   1.290       .  A
O3400      H3410   0.990       .  S
O3401      H3414   0.990       .  S
C3425      C3426   1.355       .  D
C3425      H3427   1.087       .  S
C3426      H3428   1.086       .  S
C3429      C3430   1.352       .  D
C3429      H3431   1.086       .  S
C3430      H3432   1.087       .  S
C3433      C3434   1.346       .  D
C3433      H3435   1.088       .  S
C3434      H3436   1.087       .  S
C3437      C3438   1.349       .  D
C3437      H3439   1.089       .  S
C3438      H3440   1.086       .  S
C3441      H3443   1.086       .  S
C3442      H3444   1.086   1_554  S
C3445      C3446   1.357       .  D
C3445      H3447   1.086       .  S
C3446      H3448   1.087       .  S
C3449      C3450   1.352       .  D
C3449      H3451   1.087       .  S
C3450      H3452   1.086       .  S
C3453      C3454   1.341       .  D
C3453      H3455   1.086       .  S
C3454      H3456   1.083       .  S
C3457      C3458   1.352       .  D
C3457      H3459   1.086       .  S
C3458      H3460   1.088       .  S
C3461      C3462   1.361       .  D
C3461      H3463   1.087       .  S
C3462      H3464   1.086       .  S
C3465      C3466   1.347       .  D
C3465      H3467   1.087       .  S
C3466      H3468   1.087       .  S
C3469      C3470   1.366       .  D
C3469      H3471   1.087       .  S
C3470      H3472   1.086       .  S
C3473      C3474   1.348       .  D
C3473      H3475   1.086       .  S
C3474      H3476   1.089       .  S
C3477      C3478   1.340       .  D
C3477      H3479   1.086       .  S
C3478      H3480   1.087       .  S
C3481      C3482   1.346       .  D
C3481      H3483   1.087       .  S
C3482      H3484   1.087       .  S
C3485      C3486   1.344       .  D
C3485      H3487   1.086       .  S
C3486      H3488   1.090       .  S
C3489      C3490   1.354       .  D
C3489      H3491   1.087       .  S
C3490      H3492   1.086       .  S
C3493      C3494   1.345       .  D
C3493      H3495   1.087       .  S
C3494      H3496   1.084       .  S
C3497      C3498   1.357       .  D
C3497      H3499   1.084       .  S
C3498      H3500   1.088       .  S
C3501      C3502   1.342       .  D
C3501      H3503   1.086       .  S
C3505      H3507   1.087       .  S
C3506      H3508   1.089       .  S
C3509      C3510   1.342       .  D
C3509      H3511   1.087       .  S
C3510      H3512   1.087       .  S
C3513      C3514   1.361       .  D
C3513      H3515   1.087       .  S
C3514      H3516   1.086       .  S
C3517      C3518   1.366       .  D
C3517      H3519   1.084       .  S
C3518      H3520   1.085       .  S
C3521      C3522   1.368   1_654  D
C3521      H3523   1.085   1_655  S
C3525      C3526   1.347       .  D
C3525      H3527   1.083       .  S
C3526      H3528   1.087       .  S
C3529      C3530   1.368       .  D
C3529      H3531   1.087       .  S
C3530      H3532   1.086       .  S
C3533      C3534   1.349       .  D
C3533      H3535   1.086       .  S
C3534      H3536   1.089       .  S
C3537      C3538   1.376       .  D
C3537      H3539   1.087       .  S
C3538      H3540   1.085       .  S
C3541      C3542   1.339       .  D
C3541      H3543   1.087       .  S
C3542      H3544   1.087       .  S
C3545      C3546   1.348       .  D
C3545      H3547   1.087       .  S
C3546      H3548   1.087       .  S
C3549      C3550   1.348   1_556  D
C3549      H3551   1.086       .  S
C3550      H3552   1.089       .  S
C3553      H3555   1.086       .  S
C3554      H3556   1.086       .  S
C3557      C3558   1.370   1_545  D
C3557      H3559   1.086       .  S
C3558      H3560   1.085       .  S
C3561      C3562   1.344   1_565  D
C3561      H3563   1.086       .  S
C3562      H3564   1.086       .  S
C3565      C3566   1.366       .  D
C3565      H3567   1.085       .  S
C3566      H3568   1.088       .  S
C3569      C3570   1.348       .  D
C3569      H3571   1.087       .  S
C3570      H3572   1.086       .  S
C3573      C3574   1.357   1_545  D
C3573      H3575   1.086       .  S
C3574      H3576   1.088       .  S
C3577      C3578   1.344       .  D
C3577      H3579   1.087       .  S
C3578      H3580   1.088   1_545  S
C3581      C3582   1.346       .  D
C3581      H3583   1.087       .  S
C3582      H3584   1.087       .  S
C3585      C3586   1.346       .  D
C3585      H3587   1.086       .  S
C3586      H3588   1.089       .  S
C3589      C3590   1.362       .  D
C3589      H3591   1.086       .  S
C3590      H3592   1.087       .  S
C3593      C3594   1.370       .  D
C3593      H3595   1.087       .  S
C3594      H3596   1.085       .  S
C3597      C3598   1.339       .  D
C3597      H3599   1.087       .  S
C3598      H3600   1.087       .  S
C3601      C3602   1.345       .  D
C3601      H3603   1.086       .  S
C3602      H3604   1.088       .  S
C3605      C3606   1.361       .  D
C3605      H3607   1.086       .  S
C3606      H3608   1.085       .  S
C3609      C3610   1.339       .  D
C3609      H3611   1.087       .  S
C3610      H3612   1.082       .  S
C3613      C3614   1.367   1_565  D
C3613      H3615   1.080       .  S
C3614      H3616   1.086   1_655  S
C3617      C3618   1.334       .  D
C3617      H3619   1.087   1_565  S
C3618      H3620   1.089       .  S
C3621      C3622   1.341       .  D
C3621      H3623   1.083       .  S
C3622      H3624   1.087       .  S
C3625      C3626   1.346       .  D
C3625      H3627   1.086       .  S
C3626      H3628   1.085       .  S
C3629      C3630   1.358       .  D
C3629      H3631   1.087       .  S
C3630      H3632   1.086       .  S
C3633      C3634   1.358       .  D
C3633      H3635   1.086       .  S
C3634      H3636   1.086       .  S
C3637      C3638   1.344       .  D
C3637      H3639   1.088       .  S
C3638      H3640   1.086       .  S
C3641      C3642   1.339       .  D
C3641      H3643   1.087       .  S
C3642      H3644   1.088       .  S
C3645      C3646   1.363       .  D
C3645      H3647   1.087       .  S
C3646      H3648   1.086       .  S
C3649      C3650   1.360       .  D
C3649      H3651   1.087       .  S
C3650      H3652   1.086       .  S
C3653      C3654   1.342       .  D
C3653      H3655   1.087       .  S
C3657      C3658   1.377       .  D
C3657      H3659   1.085       .  S
C3658      H3660   1.086       .  S
C3661      H3663   1.088       .  S
C3662      H3664   1.087       .  S
C3665      C3666   1.349       .  D
C3665      H3667   1.075       .  S
C3666      H3668   1.083       .  S
C3669      C3670   1.349       .  D
C3669      H3671   1.088       .  S
C3670      H3672   1.086       .  S
C3673      C3674   1.347       .  D
C3673      H3675   1.090       .  S
C3674      H3676   1.085       .  S
C3677      C3678   1.367       .  D
C3677      H3679   1.086       .  S
