geometry optimzed in LAMMPS
_audit_creation_date              2020-11-30 
_audit_creation_method            'lammps2cif' 
_symmetry_space_group_name_H-M    'P1' 
_symmetry_Int_Tables_number       1 
_symmetry_cell_setting            triclinic 
loop_ 
_symmetry_equiv_pos_as_xyz 
  x,y,z 
_cell_length_a                    46.66290174 
_cell_length_b                    46.66262255374237 
_cell_length_c                    46.67346147041732 
_cell_angle_alpha                 90.00034274399233 
_cell_angle_beta                  90.3180384201456 
_cell_angle_gamma                 89.99927435154896 
loop_ 
_atom_site_label 
_atom_site_type_symbol 
_atom_site_fract_x 
_atom_site_fract_y 
_atom_site_fract_z 
_atom_site_charge 
C1          C  0.39867224  0.36532573  0.40226596     0.80900
N2          N  0.37458495  0.37869327  0.41122515    -0.77400
C3          C  0.36421862  0.40203948  0.39702744     0.83300
N4          N  0.37879353  0.41225748  0.37418604    -0.77400
C5          C  0.40301750  0.39900902  0.36481500     0.83400
N6          N  0.41289874  0.37581374  0.37912294    -0.79100
C7          C  0.15196008  0.40923370  0.19245701     0.80900
N8          N  0.16176378  0.43289742  0.17877367    -0.77400
C9          C  0.14858772  0.44271702  0.15455927     0.83300
N10         N  0.12608220  0.42792511  0.14369309    -0.77400
C11         C  0.11605655  0.40403700  0.15704318     0.83400
N12         N  0.12921456  0.39474875  0.18120820    -0.79100
C13         C  0.41380671  0.36132626  0.15710109     0.80900
N14         N  0.43785735  0.37495452  0.14816942    -0.77400
C15         C  0.44766733  0.39886374  0.16204917     0.83300
N16         N  0.43264507  0.40930446  0.18452176    -0.77400
C17         C  0.40839480  0.39596916  0.19379660     0.83400
N18         N  0.39907075  0.37224037  0.17981763    -0.79100
C19         C  0.10935360  0.14888122  0.14454523     0.80900
N20         N  0.11916776  0.12497189  0.15842200    -0.77400
C21         C  0.14321798  0.11134560  0.14948423     0.83300
N22         N  0.15794876  0.12226236  0.12676640    -0.77400
C23         C  0.14862074  0.14599144  0.11279129     0.83400
N24         N  0.12437147  0.15932459  0.12207117    -0.79100
C25         C  0.44096286  0.15403037  0.14953163     0.80900
N26         N  0.43093412  0.17791621  0.16288554    -0.77400
C27         C  0.40841824  0.19269933  0.15202783     0.83300
N28         N  0.39523696  0.18287373  0.12781902    -0.77400
C29         C  0.40504266  0.15921246  0.11413312     0.83400
N30         N  0.42779726  0.14473532  0.12537319    -0.79100
C31         C  0.39699308  0.19551249  0.40792240     0.80900
N32         N  0.41010533  0.18594466  0.43231390    -0.77400
C33         C  0.40006252  0.16260491  0.44639418     0.83300
N34         N  0.37695937  0.14823500  0.43541588    -0.77400
C35         C  0.36364593  0.15743761  0.41116943     0.83400
N36         N  0.37409747  0.18096033  0.39745913    -0.79100
C37         C  0.15694679  0.41258705  0.36018718     0.80900
N38         N  0.18005141  0.39821817  0.37116486    -0.77400
C39         C  0.19336530  0.40742217  0.39541123     0.83300
N40         N  0.18291182  0.43094388  0.40912245    -0.77400
C41         C  0.16001416  0.44549365  0.39866007     0.83400
N42         N  0.14690285  0.43592571  0.37426834    -0.79100
O43         O  0.50087958  0.06580804  0.06118196    -0.87700
C44         C  0.06974283  0.11629453  0.05051293     0.88400
Mg45       Mg  0.49883469  0.03617719  0.09502419     1.58100
O46         O  0.06423704  0.06035410  0.50136628    -0.87400
O47         O  0.49879687  0.06541201  0.51407370    -0.74700
C48         C  0.12695959  0.47672015  0.09760334     0.93400
O49         O  0.04277151  0.09356238  0.10832704    -0.74500
O50         O  0.10448682  0.47589782  0.11272126    -0.82100
Mg51       Mg  0.51215091  0.10863182  0.07240765     1.58000
C52         C  0.12762556  0.50954629  0.47873062     0.93300
O53         O  0.47952035  0.12253986  0.03843086    -0.80300
H54         H  0.04190263  0.03888829  0.47157260    -0.05700
C55         C  0.11680764  0.04914274  0.06872928     0.88300
O56         O  0.51274386  0.50016111  0.06435976    -0.74800
O57         O  0.04672875  0.10521310  0.04289443    -0.87600
O58         O  0.11986792  0.03571613  0.47866914    -0.80400
C59         C  0.09748497  0.12746055  0.47737337     0.93400
C60         C  0.47904127  0.13028118  0.51234233     0.93300
Mg61       Mg  0.09400152  0.49836712  0.03563951     1.58000
O62         O  0.12555650  0.48397771  0.07123943    -0.80300
O63         O  0.06348589  0.51320533  0.49943282    -0.74600
O64         O  0.07124947  0.12622456  0.48511256    -0.80400
O65         O  0.47756115  0.11400056  0.10623837    -0.82100
O66         O  0.03736539  0.47941726  0.12149727    -0.80400
C67         C  0.05615310  0.03774641  0.48988144     0.87700
O68         O  0.05989741  0.50105550  0.06490650    -0.87600
O69         O  0.10494382  0.04144214  0.04612744    -0.87700
O70         O  0.10763801  0.04160135  0.09327959    -0.74700
Mg71       Mg  0.03537915  0.09515626  0.49966759     1.58000
O72         O  0.11274793  0.10492442  0.47652029    -0.82100
H73         H  0.47036401  0.04469180  0.03952215    -0.05800
O74         O  0.04230497  0.04644787  0.10544750    -0.87400
H75         H  0.06484310  0.06746185  0.13539557    -0.05700
H76         H  0.03757064  0.47172324  0.04287456    -0.05800
C77         C  0.05033194  0.06888481  0.11730775     0.87700
C78         C  0.48905809  0.05833418  0.03851665     0.88300
C79         C  0.03697399  0.49003129  0.05705591     0.88300
H80         H  0.13509547  0.06331112  0.06757685    -0.05800
O81         O  0.09396589  0.10679610  0.04224701    -0.74800
Mg82       Mg  0.07142620  0.51140312  0.10796107     1.58000
H83         H  0.06924941  0.13420362  0.06520074    -0.05800
C84         C  0.47725160  0.09810697  0.12830143     0.93300
O85         O  0.49576106  0.50135529  0.12889153    -0.82100
C86         C  0.51131339  0.47888808  0.12912176     0.93400
O87         O  0.50158173  0.13011563  0.49704218    -0.82100
Mg88       Mg  0.10765850  0.07069622  0.51129272     1.58200
O89         O  0.48439613  0.07165300  0.12673401    -0.80400
O90         O  0.12854013  0.49483159  0.50170248    -0.82100
N91         N  0.11089017  0.15536119  0.47531545    -0.02800
C92         C  0.10184617  0.17839084  0.49052457    -0.00200
C93         C  0.12002122  0.20137400  0.48744415    -0.23100
C94         C  0.14132651  0.19257983  0.46958774    -0.23300
C95         C  0.13560334  0.16432730  0.46237777    -0.00300
H96         H  0.11816709  0.22218871  0.49750847     0.13500
H97         H  0.15916116  0.20558744  0.46254519     0.13500
N98         N  0.47447888  0.11096030  0.15631553    -0.02800
C99         C  0.48939158  0.10164326  0.17944781    -0.00200
C100        C  0.48570024  0.11936195  0.20268899    -0.23100
C101        C  0.46772439  0.14071691  0.19383694    -0.23300
C102        C  0.46115676  0.13543476  0.16531371    -0.00300
H103        H  0.49551002  0.11724927  0.22365428     0.13500
H104        H  0.46029858  0.15834895  0.20691933     0.13500
N105        N  0.15466840  0.47641684  0.11161065    -0.02800
C106        C  0.17713145  0.49255777  0.10278869    -0.00200
C107        C  0.19940322  0.49155951  0.12224342    -0.23100
C108        C  0.19073570  0.47387466  0.14391531    -0.23300
C109        C  0.16327936  0.46469611  0.13711531    -0.00300
H110        H  0.22001418  0.50204062  0.12049457     0.13500
H111        H  0.20349780  0.46780561  0.16237995     0.13500
O112        O  0.99276546  0.31037256  0.30520128    -0.87700
C113        C  0.44019051  0.29916043  0.23784669     0.88400
Mg114      Mg  0.02162740  0.34517092  0.30689772     1.58100
O115        O  0.99710371  0.25107757  0.24167016    -0.87400
O116        O  0.99351433  0.26322417  0.30713777    -0.74700
C117        C  0.07975686  0.34811869  0.17826440     0.93400
O118        O  0.46303777  0.35681876  0.26432836    -0.74500
O119        O  0.07943823  0.36401784  0.20032321    -0.82100
Mg120      Mg  0.44934342  0.32071706  0.29528046     1.58000
C121        C  0.04569005  0.22890102  0.17745366     0.93300
O122        O  0.43713154  0.28573713  0.32790622    -0.80300
H123        H  0.01943191  0.22174593  0.26370194    -0.05700
C124        C  0.00666918  0.31890071  0.18925815     0.88300
O125        O  0.05820516  0.31542234  0.29248635    -0.74800
O126        O  0.45205403  0.29146244  0.26044983    -0.87600
O127        O  0.01963869  0.22942916  0.18508117    -0.80400
C128        C  0.43004446  0.22672647  0.20897674     0.93400
C129        C  0.42937442  0.25956617  0.32784755     0.93300
Mg130      Mg  0.05816649  0.28619294  0.21154283     1.58000
O131        O  0.07261126  0.32166538  0.17983457    -0.80300
O132        O  0.04425694  0.25017914  0.24220959    -0.74600
O133        O  0.43144837  0.23398892  0.23533987    -0.80400
O134        O  0.44426312  0.35494669  0.33005417    -0.82100
O135        O  0.07748638  0.37255667  0.26812761    -0.80400
C136        C  0.02002747  0.24005240  0.24951857     0.87700
O137        O  0.05612314  0.31582572  0.24538232    -0.87600
O138        O  0.01469570  0.29646471  0.20112079    -0.87700
O139        O  0.01422867  0.34357905  0.19823768    -0.74700
Mg140      Mg  0.46300087  0.24838879  0.27094007     1.58000
O141        O  0.45251499  0.22591136  0.19385500    -0.82100
H142        H  0.01509785  0.28890815  0.33499719    -0.05800
O143        O  0.01027500  0.35523354  0.26367336    -0.87400
H144        H  0.48775124  0.38422582  0.24137174    -0.05700
H145        H  0.08664001  0.29470835  0.26703974    -0.05800
C146        C  0.48725987  0.36631620  0.25605882     0.87700
C147        C  0.00084826  0.28776566  0.31668811     0.88300
C148        C  0.06794639  0.30835212  0.26804659     0.88300
H149        H  0.99215943  0.31747634  0.17116922    -0.05800
O150        O  0.44936143  0.29161714  0.21329695    -0.74800
Mg151      Mg  0.04485090  0.35864985  0.23415578     1.58000
H152        H  0.42190133  0.31332810  0.23899724    -0.05800
C153        C  0.45952850  0.37748090  0.32920235     0.93300
O154        O  0.05542780  0.38012655  0.30952189    -0.82100
C155        C  0.07796948  0.38028717  0.29422371     0.93400
O156        O  0.42846277  0.24484812  0.30487710    -0.82100
Mg157      Mg  0.98557469  0.26141854  0.19861369     1.58200
O158        O  0.98576262  0.37624284  0.32145911    -0.80400
O159        O  0.06123770  0.25137088  0.17767492    -0.82100
N160        N  0.40233297  0.22640434  0.19497465    -0.02800
C161        C  0.37986302  0.24253522  0.20379829    -0.00200
C162        C  0.35758517  0.24151861  0.18435213    -0.23100
C163        C  0.36625625  0.22383315  0.16268251    -0.23300
C164        C  0.39372069  0.21467227  0.16947545    -0.00300
H165        H  0.33696860  0.25198874  0.18610507     0.13500
H166        H  0.35349156  0.21775220  0.14422366     0.13500
N167        N  0.08254748  0.36096373  0.15024897    -0.02800
C168        C  0.06764902  0.35164011  0.12711059    -0.00200
C169        C  0.07135713  0.36934974  0.10386568    -0.23100
C170        C  0.08932843  0.39070650  0.11272258    -0.23300
C171        C  0.09587653  0.38543415  0.14125208    -0.00300
H172        H  0.06155975  0.36723127  0.08289526     0.13500
H173        H  0.09676364  0.40833370  0.09963939     0.13500
N174        N  0.44612673  0.40538274  0.33126862    -0.02800
C175        C  0.45517026  0.42841456  0.31606337    -0.00200
C176        C  0.43699647  0.45139832  0.31915053    -0.23100
C177        C  0.41569309  0.44260235  0.33700819    -0.23300
C178        C  0.42141632  0.41434820  0.34421209    -0.00300
H179        H  0.43885024  0.47221457  0.30909013     0.13500
H180        H  0.39786036  0.45561013  0.34405615     0.13500
O181        O  0.10292760  0.99641624  0.27494246    -0.87700
C182        C  0.02295567  0.99309269  0.30899837     0.88400
Mg183      Mg  0.11625263  0.03680109  0.25724063     1.58100
O184        O  0.03169344  0.45428270  0.24568959    -0.87400
O185        O  0.09495039  0.45063130  0.26659034    -0.74700
C186        C  0.50954138  0.07776074  0.18018747     0.93400
O187        O  0.06602362  0.04492594  0.30710479    -0.74500
O188        O  0.03579497  0.08371592  0.18308509    -0.82100
Mg189      Mg  0.08544308  0.00008339  0.31659420     1.58000
C190        C  0.47662693  0.46019298  0.18090430     0.93300
O191        O  0.10786960  0.45615390  0.32647052    -0.80300
H192        H  0.05246016  0.42596971  0.22103862    -0.05700
C193        C  0.49748117  0.03401276  0.24275595     0.88300
O194        O  0.10670928  0.01779938  0.21180403    -0.74800
O195        O  0.04596443  0.48323912  0.30018119    -0.87600
O196        O  0.48006065  0.44903491  0.20549653    -0.80400
C197        C  0.47936566  0.42952983  0.29630868     0.93400
C198        C  0.09658577  0.43168074  0.33007955     0.93300
Mg199      Mg  0.02070047  0.00748876  0.19068523     1.58000
O200        O  0.50021867  0.05217149  0.18236707    -0.80300
O201        O  0.04032870  0.46231872  0.20003228    -0.74600
O202        O  0.00483145  0.43227652  0.30602590    -0.80400
O203        O  0.12506708  0.02027157  0.33293877    -0.82100
O204        O  0.10039434  0.07799449  0.19950435    -0.80400
C205        C  0.04193855  0.44657415  0.22242168     0.87700
O206        O  0.06079351  0.02578598  0.20424508    -0.87600
O207        O  0.50629987  0.01108893  0.23262171    -0.87700
O208        O  0.01231300  0.05695426  0.24163942    -0.74700
Mg209      Mg  0.04969902  0.44112042  0.28593877     1.58000
O210        O  0.47365445  0.43255463  0.26999307    -0.82100
H211        H  0.13119491  0.47159115  0.25433320    -0.05800
O212        O  0.07422559  0.05106853  0.26122664    -0.87400
H213        H  0.05444735  0.08074171  0.28502494    -0.05700
H214        H  0.08551063  0.00587508  0.17542237    -0.05800
C215        C  0.06452645  0.05989334  0.28427944     0.87700
C216        C  0.11062848  0.47305615  0.26481096     0.88300
C217        C  0.08416352  0.01603934  0.19619994     0.88300
H218        H  0.47673854  0.03453149  0.25295036    -0.05800
O219        O  0.49996594  0.99149310  0.29414996    -0.74800
Mg220      Mg  0.05678610  0.06735148  0.22212944     1.58000
H221        H  0.02237485  0.00335112  0.32975807    -0.05800
C222        C  0.12830574  0.04659749  0.32757225     0.93300
O223        O  0.12746493  0.08019954  0.23766458    -0.82100
C224        C  0.12499995  0.08158649  0.21067984     0.93400
O225        O  0.06958071  0.42957493  0.32910861    -0.82100
Mg226      Mg  0.49003596  0.47181480  0.24942240     1.58200
O227        O  0.12546389  0.05656658  0.30226302    -0.80400
O228        O  0.47771913  0.48721033  0.17867715    -0.82100
N229        N  0.11371089  0.40623166  0.32624465    -0.02800
C230        C  0.10615409  0.38470242  0.30811028    -0.00200
C231        C  0.12782865  0.36477587  0.30597347    -0.23100
C232        C  0.14935864  0.37376496  0.32391285    -0.23300
C233        C  0.14037367  0.39914745  0.33642409    -0.00300
H234        H  0.12751591  0.34515809  0.29359120     0.13500
H235        H  0.16912968  0.36234206  0.32810782     0.13500
N236        N  0.15030109  0.07814760  0.19333647    -0.02800
C237        C  0.17225935  0.06047597  0.20086235    -0.00200
C238        C  0.19198506  0.05836112  0.17914194    -0.23100
C239        C  0.18247961  0.07582700  0.15756588    -0.23300
C240        C  0.15697728  0.08808762  0.16653856    -0.00300
H241        H  0.21176022  0.04622591  0.17940998     0.13500
H242        H  0.19363067  0.07983993  0.13769399     0.13500
N243        N  0.48037609  0.44287869  0.15549808    -0.02800
C244        C  0.49793081  0.45064123  0.13370732    -0.00200
C245        C  0.50043467  0.42890568  0.11390762    -0.23100
C246        C  0.48330490  0.40704152  0.12319015    -0.23300
C247        C  0.47087295  0.41591731  0.14859431    -0.00300
H248        H  0.51257013  0.42935944  0.09421041     0.13500
H249        H  0.47952357  0.38711263  0.11191494     0.13500
O250        O  0.30967938  0.30654661  0.99238350    -0.87700
C251        C  0.29800056  0.23801984  0.44176140     0.88400
Mg252      Mg  0.34453462  0.30863390  0.02117431     1.58100
O253        O  0.25020073  0.24294932  0.99853970    -0.87400
O254        O  0.26251237  0.30833823  0.99338725    -0.74700
C255        C  0.34799065  0.18077415  0.08040039     0.93400
O256        O  0.35594662  0.26503696  0.46342820    -0.74500
O257        O  0.36297147  0.20342440  0.08129886    -0.82100
Mg258      Mg  0.31974015  0.29577685  0.44926339     1.58000
C259        C  0.22899678  0.17938601  0.04953096     0.93300
O260        O  0.28458415  0.32836763  0.43666243    -0.80300
H261        H  0.22074769  0.26496160  0.02047545    -0.05700
C262        C  0.31783006  0.19067014  0.00860051     0.88300
O263        O  0.31474867  0.29478744  0.05788049    -0.74800
O264        O  0.29052159  0.26091113  0.45307259    -0.87600
O265        O  0.22826504  0.18719216  0.02339521    -0.80400
C266        C  0.22607622  0.20943443  0.43158699     0.93400
C267        C  0.25833914  0.32795369  0.42900382     0.93300
Mg268      Mg  0.28580608  0.21331642  0.05980167     1.58000
O269        O  0.32153132  0.18192271  0.07344900    -0.80300
O270        O  0.24920710  0.24357745  0.04569190    -0.74600
O271        O  0.23345509  0.23574900  0.43264661    -0.80400
O272        O  0.35415696  0.33033684  0.44336859    -0.82100
O273        O  0.37198666  0.27058150  0.07752112    -0.80400
C274        C  0.23913241  0.25087936  0.02131892     0.87700
O275        O  0.31495142  0.24764799  0.05668980    -0.87600
O276        O  0.29543516  0.20252789  0.01657375    -0.87700
O277        O  0.34254802  0.19986741  0.01584990    -0.74700
Mg278      Mg  0.24754102  0.27166327  0.46368537     1.58000
O279        O  0.22443507  0.19475753  0.45444828    -0.82100
H280        H  0.28835603  0.33665321  0.01415279    -0.05800
O281        O  0.35441716  0.26520848  0.01062792    -0.85800
H282        H  0.38345087  0.24257712  0.48876718    -0.05700
H283        H  0.29379528  0.26980748  0.08658051    -0.05800
C284        C  0.36550937  0.25721639  0.48785777     0.87700
C285        C  0.28711344  0.31810127  0.00032442     0.88300
C286        C  0.30750594  0.27050439  0.06799646     0.88300
H287        H  0.31633422  0.17235977  0.99447803    -0.05800
O288        O  0.29013153  0.21367400  0.45135520    -0.74800
Mg289      Mg  0.35775708  0.23627241  0.04575630     1.58000
H290        H  0.31217668  0.23873060  0.42353435    -0.05800
C291        C  0.37674883  0.32977042  0.45872693     0.93300
O292        O  0.37955692  0.31181319  0.05500110    -0.82100
C293        C  0.37990345  0.29660683  0.07767794     0.93400
O294        O  0.24394276  0.30479534  0.42832238    -0.82100
Mg295      Mg  0.26001407  0.19967714  0.98792479     1.58200
O296        O  0.37558031  0.32253845  0.98513721    -0.80400
O297        O  0.25231433  0.17844441  0.06376473    -0.82100
N298        N  0.22668421  0.19502855  0.40412426    -0.02800
C299        C  0.24326787  0.20369308  0.38187425    -0.00200
C300        C  0.24283881  0.18397210  0.35993962    -0.23100
C301        C  0.22510133  0.16234310  0.36847501    -0.23300
C302        C  0.21525577  0.16939162  0.39554369    -0.00300
H303        H  0.25364555  0.18558169  0.33953789     0.13500
H304        H  0.21936834  0.14375597  0.35579943     0.13500
N305        N  0.36219388  0.15328323  0.08009071    -0.02800
C306        C  0.35345183  0.13095135  0.06360247    -0.00200
C307        C  0.37321033  0.10903821  0.06404412    -0.23100
C308        C  0.39491596  0.11774774  0.08181795    -0.23300
C309        C  0.38783232  0.14488408  0.09160671    -0.00300
H310        H  0.37160246  0.08858335  0.05321176     0.13500
H311        H  0.41357591  0.10517627  0.08758206     0.13500
N312        N  0.40462576  0.33149485  0.44536320    -0.02800
C313        C  0.42756777  0.31611642  0.45456093    -0.00200
C314        C  0.45053695  0.31894741  0.43645615    -0.23100
C315        C  0.44186409  0.33686830  0.41505174    -0.23300
C316        C  0.41368798  0.34436647  0.42066055    -0.00300
H317        H  0.47128377  0.30873763  0.43847095     0.13500
H318        H  0.45493004  0.34380213  0.39725140     0.13500
O319        O  0.02532483  0.20427522  0.06089196    -0.87700
C320        C  0.05954465  0.28400223  0.06380702     0.88400
Mg321      Mg  0.00732092  0.19110885  0.02064236     1.58100
O322        O  0.99623503  0.27578887  0.10232267    -0.87400
O323        O  0.01669161  0.21232205  0.10654784    -0.74700
C324        C  0.42873397  0.29660301  0.47900146     0.93400
O325        O  0.05706420  0.24146716  0.01242516    -0.74500
O326        O  0.43197227  0.27027786  0.47363044    -0.82100
Mg327      Mg  0.06698528  0.22179935  0.05715859     1.58000
C328        C  0.43202885  0.33158358  0.09589394     0.93300
O329        O  0.07695321  0.19903232  0.10109122    -0.80300
H330        H  0.47151974  0.25588064  0.13114807    -0.05700
C331        C  0.99250323  0.30988694  0.02228865     0.88300
O332        O  0.46206915  0.20062856  0.03998413    -0.74800
O333        O  0.05072602  0.26108136  0.07394766    -0.87600
O334        O  0.45663723  0.32799741  0.10706560    -0.80400
C335        C  0.04749495  0.32776195  0.12636948     0.93400
C336        C  0.08038943  0.21019655  0.12568041     0.93300
Mg337      Mg  0.44077428  0.28679901  0.04932945     1.58000
O338        O  0.43156335  0.30656053  0.00430545    -0.80300
O339        O  0.45031942  0.26780041  0.09476598    -0.74600
O340        O  0.05681355  0.30217114  0.12419203    -0.80400
O341        O  0.08335878  0.18252787  0.03660217    -0.82100
O342        O  0.44915355  0.20615826  0.48010062    -0.80400
C343        C  0.47286565  0.26604298  0.11036954     0.87700
O344        O  0.45409876  0.24641337  0.03162844    -0.87600
O345        O  0.48280091  0.30106674  0.04534172    -0.87700
O346        O  0.99101389  0.29491861  0.49947323    -0.74700
Mg347      Mg  0.03632566  0.25749175  0.11588518     1.58000
O348        O  0.02124182  0.33372121  0.12347474    -0.82100
H349        H  0.00455392  0.17597088  0.08554846    -0.05800
O350        O  0.01106132  0.23322767  0.50639824    -0.87400
H351        H  0.03465729  0.25332863  0.47681970    -0.05700
H352        H  0.42582577  0.22159453  0.05223543    -0.05800
C353        C  0.03407322  0.24307314  0.49758038     0.87700
C354        C  0.01507849  0.19657335  0.08416132     0.88300
C355        C  0.44639350  0.22305570  0.04175996     0.88300
H356        H  0.00258295  0.33073461  0.02154116    -0.05800
O357        O  0.04471464  0.30694570  0.06492133    -0.74800
Mg358      Mg  0.47158865  0.25008074  0.48998070     1.58000
H359        H  0.08028561  0.28451670  0.05360944    -0.05800
C360        C  0.07764867  0.17950437  0.51027686     0.93300
O361        O  0.48743724  0.17957088  0.47746675    -0.82100
C362        C  0.46043273  0.18168259  0.47649333     0.93400
O363        O  0.07930338  0.23721429  0.12790078    -0.82100
Mg364      Mg  0.00024395  0.31735180  0.08443537     1.58200
O365        O  0.05218445  0.18225599  0.50055678    -0.80400
O366        O  0.42956098  0.33019773  0.06890896    -0.82100
N367        N  0.40673125  0.32813363  0.11324120    -0.02800
C368        C  0.38477824  0.31045536  0.10571558    -0.00200
C369        C  0.36505746  0.30832890  0.12743929    -0.23100
C370        C  0.37455930  0.32579422  0.14901708    -0.23300
C371        C  0.40005491  0.33806640  0.14004267    -0.00300
H372        H  0.34528715  0.29618621  0.12717270     0.13500
H373        H  0.36340991  0.32979898  0.16889148     0.13500
N374        N  0.07663828  0.19288984  0.15109058    -0.02800
C375        C  0.05907890  0.20065476  0.17287692    -0.00200
C376        C  0.05657907  0.17892341  0.19268182    -0.23100
C377        C  0.07371561  0.15706025  0.18340623    -0.23300
C378        C  0.08614647  0.16593232  0.15800062    -0.00300
H379        H  0.04444195  0.17937959  0.21237812     0.13500
H380        H  0.07750060  0.13713437  0.19468557     0.13500
N381        N  0.44330243  0.15623786  0.48032887    -0.02800
C382        C  0.45085667  0.13470527  0.49845991    -0.00200
C383        C  0.42917709  0.11478535  0.50060046    -0.23100
C384        C  0.40764607  0.12378194  0.48266656    -0.23300
C385        C  0.41663579  0.14916208  0.47015476    -0.00300
H386        H  0.42948647  0.09516748  0.51298179     0.13500
H387        H  0.38787105  0.11236515  0.47847536     0.13500
O388        O  0.30554025  0.06532310  0.99735580    -0.87700
C389        C  0.23683228  0.11644346  0.00777148     0.88400
Mg390      Mg  0.30876796  0.03701894  0.46241019     1.58100
O391        O  0.24163688  0.05934693  0.05566214    -0.87400
O392        O  0.30687837  0.06450078  0.04450694    -0.74700
C393        C  0.18086267  0.47793594  0.45687547     0.93400
O394        O  0.26486560  0.09448579  0.44990443    -0.74500
O395        O  0.20374742  0.47657874  0.44233657    -0.82100
Mg396      Mg  0.29477033  0.10843444  0.98691529     1.58000
C397        C  0.17944960  0.00820037  0.07561372     0.93300
O398        O  0.32651516  0.12060008  0.02219153    -0.80300
H399        H  0.26369955  0.03737897  0.08529961    -0.05700
C400        C  0.19084745  0.04938740  0.48668990     0.88300
O401        O  0.29482747  0.49987035  0.99177828    -0.74800
O402        O  0.25948392  0.10469044  0.01542827    -0.87600
O403        O  0.18680284  0.03439139  0.07640457    -0.80400
C404        C  0.20715340  0.12564199  0.07978159     0.93400
C405        C  0.32603420  0.12824690  0.04828908     0.93300
Mg406      Mg  0.21307717  0.49825067  0.01937496     1.58000
O407        O  0.18182174  0.48495809  0.98327900    -0.80300
O408        O  0.24297789  0.51217716  0.05637708    -0.74600
O409        O  0.23354553  0.12485101  0.07264294    -0.80400
O410        O  0.33031405  0.11433967  0.45414565    -0.82100
O411        O  0.27229531  0.48042509  0.43521404    -0.80400
C412        C  0.24979018  0.03654320  0.06671463     0.87700
O413        O  0.24771508  0.50133731  0.99091702    -0.87600
O414        O  0.20247132  0.04151589  0.00936211    -0.87700
O415        O  0.20026321  0.04197738  0.46218124    -0.74700
Mg416      Mg  0.26992605  0.09414627  0.05867587     1.58000
O417        O  0.19244769  0.10277010  0.08046700    -0.82100
H418        H  0.33544854  0.04361970  0.01931295    -0.05800
O419        O  0.26554583  0.04730160  0.45153203    -0.87400
H420        H  0.24356164  0.06901326  0.42164055    -0.05700
H421        H  0.26951218  0.47115821  0.01235517    -0.05800
C422        C  0.25762393  0.07001340  0.44010231     0.87700
C423        C  0.31687142  0.05743676  0.02014419     0.88300
C424        C  0.27043271  0.48985538  0.99871027     0.88300
H425        H  0.17250480  0.06349628  0.48775073    -0.05800
O426        O  0.21234268  0.10694248  0.01516991    -0.74800
Mg427      Mg  0.23693805  0.01204759  0.44788930     1.58000
H428        H  0.23788523  0.13496210  0.99389015    -0.05800
C429        C  0.32963847  0.09964394  0.43127673     0.93300
O430        O  0.31262061  0.50432344  0.42682952    -0.82100
C431        C  0.29841178  0.48106643  0.42757990     0.93400
O432        O  0.30281597  0.12947268  0.06240208    -0.82100
Mg433      Mg  0.19854073  0.06985636  0.04483828     1.58200
O434        O  0.32256089  0.07324577  0.43194925    -0.80400
O435        O  0.17804375  0.49429446  0.05221624    -0.82100
N436        N  0.33000776  0.11405704  0.40389750    -0.02800
C437        C  0.31399766  0.10542219  0.38100670    -0.00200
C438        C  0.31519714  0.12517257  0.35914923    -0.23100
C439        C  0.33283481  0.14671873  0.36845526    -0.23300
C440        C  0.34188639  0.13966683  0.39593248    -0.00300
H441        H  0.30496413  0.12365868  0.33833130     0.13500
H442        H  0.33892591  0.16533543  0.35606605     0.13500
N443        N  0.19278920  0.15313508  0.08036794    -0.02800
C444        C  0.20170196  0.17614874  0.06487498    -0.00200
C445        C  0.18215736  0.19818500  0.06611556    -0.23100
C446        C  0.16033693  0.18889374  0.08317146    -0.23300
C447        C  0.16703356  0.16125611  0.09184537    -0.00300
H448        H  0.18391727  0.21905719  0.05615266     0.13500
H449        H  0.14171208  0.20135662  0.08907050     0.13500
N450        N  0.15343887  0.47850665  0.44226931    -0.02800
C451        C  0.13090188  0.49477139  0.45099158    -0.00200
C452        C  0.10918521  0.49453467  0.43088627    -0.23100
C453        C  0.11816678  0.47722146  0.40903163    -0.23300
C454        C  0.14528344  0.46742039  0.41629742    -0.00300
H455        H  0.08863269  0.50517800  0.43236774     0.13500
H456        H  0.10578401  0.47176594  0.39012279     0.13500
O457        O  0.30928437  0.25132234  0.31566150    -0.87700
C458        C  0.29937503  0.32000402  0.36647297     0.88400
Mg459      Mg  0.34392247  0.24824016  0.28720325     1.58100
O460        O  0.25145903  0.31530747  0.30922507    -0.87400
O461        O  0.26217230  0.24985151  0.31480106    -0.74700
C462        C  0.34984701  0.37562594  0.22679444     0.93400
O463        O  0.35673332  0.29197795  0.34439264    -0.74500
O464        O  0.36454663  0.35275024  0.22610283    -0.82100
Mg465      Mg  0.32006500  0.26204478  0.35868967     1.58000
C466        C  0.23096220  0.37825012  0.25830254     0.93300
O467        O  0.28471668  0.23042209  0.37137401    -0.80300
H468        H  0.22154682  0.29361085  0.28726736    -0.05700
C469        C  0.32016531  0.36643136  0.29880547     0.88300
O470        O  0.31401746  0.26216393  0.25020192    -0.74800
O471        O  0.29145311  0.29729190  0.35504461    -0.87600
O472        O  0.23048499  0.37059630  0.28439804    -0.80400
C473        C  0.22736774  0.34962899  0.37530408     0.93400
C474        C  0.25860069  0.23105861  0.37900881     0.93300
Mg475      Mg  0.28706829  0.34413791  0.24790346     1.58000
O476        O  0.32345487  0.37484026  0.23393598    -0.80300
O477        O  0.25011447  0.31449462  0.26207364    -0.74600
O478        O  0.23444423  0.32323074  0.37463286    -0.80400
O479        O  0.35325783  0.22658055  0.36424208    -0.82100
O480        O  0.37018840  0.28437539  0.23017123    -0.80400
C481        C  0.24012447  0.30742613  0.28643648     0.87700
O482        O  0.31535580  0.30933437  0.25091295    -0.87600
O483        O  0.29751369  0.35467716  0.29115174    -0.87700
O484        O  0.34465429  0.35693153  0.29140288    -0.74700
Mg485      Mg  0.24823164  0.28700565  0.34416978     1.58000
O486        O  0.22668445  0.36432153  0.35243342    -0.82100
H487        H  0.28749039  0.22114024  0.29422482    -0.05800
O488        O  0.35452082  0.29150680  0.29721329    -0.87400
H489        H  0.38448499  0.31349838  0.31881801    -0.05700
H490        H  0.29328988  0.28736267  0.22128046    -0.05800
C491        C  0.36614475  0.29938681  0.31988236     0.87700
C492        C  0.28656793  0.23983795  0.30786927     0.88300
C493        C  0.30720203  0.28652909  0.23986372     0.88300
H494        H  0.31911306  0.38495012  0.31268681    -0.05800
O495        O  0.29213286  0.34447554  0.35666986    -0.74800
Mg496      Mg  0.35845269  0.31984253  0.26173515     1.58000
H497        H  0.31343861  0.31900479  0.38493360    -0.05800
C498        C  0.37614240  0.22794282  0.34970396     0.93300
O499        O  0.37895770  0.24428680  0.25436802    -0.82100
C500        C  0.37754633  0.25818596  0.23096797     0.93400
O501        O  0.24438391  0.25431144  0.37975211    -0.82100
Mg502      Mg  0.26223014  0.35841815  0.31966866     1.58200
O503        O  0.37518463  0.23495792  0.32329588    -0.80400
O504        O  0.25417732  0.37946849  0.24418323    -0.82100
N505        N  0.36421955  0.40311494  0.22621559    -0.02800
C506        C  0.35531192  0.42612745  0.24171429    -0.00200
C507        C  0.37486277  0.44815802  0.24048269    -0.23100
C508        C  0.39668242  0.43886489  0.22342710    -0.23300
C509        C  0.38997951  0.41123170  0.21474365    -0.00300
H510        H  0.37310783  0.46902799  0.25045178     0.13500
H511        H  0.41531160  0.45132390  0.21753490     0.13500
N512        N  0.22701110  0.36404667  0.40268077    -0.02800
C513        C  0.24303345  0.35541837  0.42556606    -0.00200
C514        C  0.24184245  0.37517525  0.44741859    -0.23100
C515        C  0.22419759  0.39671759  0.43811532    -0.23300
C516        C  0.21513333  0.38965741  0.41064432    -0.00300
H517        H  0.25208478  0.37366752  0.46823229     0.13500
H518        H  0.21811094  0.41533754  0.45050240     0.13500
N519        N  0.40356486  0.22852389  0.36431144    -0.02800
C520        C  0.42609759  0.24479460  0.35558947    -0.00200
C521        C  0.44781123  0.24456663  0.37569835    -0.23100
C522        C  0.43883235  0.22725277  0.39755376    -0.23300
C523        C  0.41172007  0.21744254  0.39028542    -0.00300
H524        H  0.46836064  0.25521554  0.37421881     0.13500
H525        H  0.45121410  0.22180287  0.41646435     0.13500
O526        O  0.24207775  0.99765266  0.24988894    -0.87700
C527        C  0.19152577  0.00722802  0.31871710     0.88400
Mg528      Mg  0.27121574  0.46331229  0.24677956     1.58100
O529        O  0.24735019  0.05655042  0.31419287    -0.87400
O530        O  0.24228435  0.04479214  0.24869752    -0.74700
C531        C  0.33094087  0.45943569  0.37500672     0.93400
O532        O  0.21446928  0.44987574  0.29072415    -0.74500
O533        O  0.33257552  0.44475231  0.35214864    -0.82100
Mg534      Mg  0.19926948  0.98628507  0.26081718     1.58000
C535        C  0.29869276  0.07795836  0.37757126     0.93300
O536        O  0.18504925  0.02059817  0.22905185    -0.80300
H537        H  0.26867701  0.08665056  0.29241927    -0.05700
C538        C  0.25902354  0.48803124  0.36482484     0.88300
O539        O  0.30782057  0.99356571  0.26088858    -0.74800
O540        O  0.20261130  0.01521784  0.29594717    -0.87600
O541        O  0.27244787  0.07837326  0.36991363    -0.80400
C542        C  0.18028607  0.07977703  0.34784821     0.93400
C543        C  0.17713249  0.04662363  0.22889782     0.93300
Mg544      Mg  0.30948916  0.02166238  0.34289769     1.58000
O545        O  0.32356821  0.98575190  0.37394245    -0.80300
O546        O  0.29451756  0.05833271  0.31318496    -0.74600
O547        O  0.18144976  0.07254513  0.32143920    -0.80400
O548        O  0.19405508  0.45344124  0.22527063    -0.82100
O549        O  0.32874872  0.43717792  0.28319192    -0.80400
C550        C  0.26991758  0.06810005  0.30624952     0.87700
O551        O  0.30682309  0.99294209  0.30804076    -0.87600
O552        O  0.26650707  0.01091908  0.35351029    -0.87700
O553        O  0.26688576  0.46368215  0.35523356    -0.74700
Mg554      Mg  0.21249674  0.05864203  0.28540266     1.58000
O555        O  0.20287905  0.08034977  0.36320429    -0.82100
H556        H  0.26323991  0.01980911  0.22000067    -0.05800
O557        O  0.26158249  0.45252897  0.29000741    -0.87400
H558        H  0.24067628  0.42236465  0.31210035    -0.05700
H559        H  0.33628329  0.01494484  0.28610558    -0.05800
C560        C  0.23918495  0.44067493  0.29797786     0.87700
C561        C  0.24952704  0.02050799  0.23858310     0.88300
C562        C  0.31789509  0.00086699  0.28526177     0.88300
H563        H  0.24484841  0.48874846  0.38305252    -0.05800
O564        O  0.20108656  0.01504887  0.34314725    -0.74800
Mg565      Mg  0.29700075  0.44967311  0.31865948     1.58000
H566        H  0.17358474  0.99258850  0.31780646    -0.05800
C567        C  0.20902507  0.43078396  0.22617998     0.93300
O568        O  0.30469985  0.42843221  0.24282148    -0.82100
C569        C  0.32801678  0.42936997  0.25705655     0.93400
O570        O  0.17747539  0.06182675  0.25157691    -0.82100
Mg571      Mg  0.23729239  0.04578677  0.35731381     1.58200
O572        O  0.23548391  0.43192327  0.23313514    -0.80400
O573        O  0.31308907  0.05479966  0.37825506    -0.82100
N574        N  0.19480807  0.40330035  0.22650237    -0.02800
C575        C  0.20354056  0.38096968  0.24299818    -0.00200
C576        C  0.18376806  0.35906948  0.24257112    -0.23100
C577        C  0.16206461  0.36778417  0.22479744    -0.23300
C578        C  0.16916292  0.39491094  0.21499367    -0.00300
H579        H  0.18536598  0.33861802  0.25341165     0.13500
H580        H  0.14339626  0.35522134  0.21904259     0.13500
N581        N  0.15240984  0.08149025  0.36121507    -0.02800
C582        C  0.12947110  0.06610689  0.35201687    -0.00200
C583        C  0.10650404  0.06892696  0.37012609    -0.23100
C584        C  0.11517442  0.08684494  0.39153370    -0.23300
C585        C  0.14334729  0.09435275  0.38592285    -0.00300
H586        H  0.08576008  0.05871090  0.36811260     0.13500
H587        H  0.10210914  0.09376982  0.40933810     0.13500
N588        N  0.33033812  0.44503747  0.40247307    -0.02800
C589        C  0.31375489  0.45370462  0.42472261    -0.00200
C590        C  0.31419491  0.43399076  0.44666354    -0.23100
C591        C  0.33193783  0.41236366  0.43813142    -0.23300
C592        C  0.34177537  0.41940621  0.41105853    -0.00300
H593        H  0.30339135  0.43560348  0.46706650     0.13500
H594        H  0.33767861  0.39378167  0.45081102     0.13500
C595        C  0.15400623  0.14899055  0.44177610     0.80900
N596        N  0.17823181  0.16224016  0.43241096    -0.77400
C597        C  0.19281136  0.15202406  0.40957139     0.83300
N598        N  0.18244783  0.12867929  0.39536946    -0.77400
C599        C  0.15835894  0.11531118  0.40432209     0.83400
N600        N  0.14412814  0.12579672  0.42746381    -0.79100
C601        C  0.39866708  0.36532923  0.90226810     0.80900
N602        N  0.37458079  0.37869872  0.91122822    -0.77400
C603        C  0.36421916  0.40204947  0.89703391     0.83300
N604        N  0.37879821  0.41227045  0.87419680    -0.77400
C605        C  0.40302141  0.39902098  0.86482583     0.83400
N606        N  0.41289739  0.37582062  0.87912889    -0.79100
C607        C  0.15195361  0.40923035  0.69245449     0.80900
N608        N  0.16175480  0.43289521  0.67877135    -0.77400
C609        C  0.14857896  0.44271288  0.65455583     0.83300
N610        N  0.12607627  0.42791721  0.64368808    -0.77400
C611        C  0.11605297  0.40402810  0.65703890     0.83400
N612        N  0.12921066  0.39474266  0.68120488    -0.79100
C613        C  0.41379920  0.36132740  0.65710131     0.80900
N614        N  0.43785150  0.37495265  0.64817041    -0.77400
C615        C  0.44766013  0.39886429  0.66204611     0.83300
N616        N  0.43263489  0.40931065  0.68451424    -0.77400
C617        C  0.40838310  0.39597796  0.69378886     0.83400
N618        N  0.39906016  0.37224656  0.67981346    -0.79100
C619        C  0.10934528  0.14886753  0.64454009     0.80900
N620        N  0.11916001  0.12495797  0.65841539    -0.77400
C621        C  0.14321237  0.11133467  0.64947925     0.83300
N622        N  0.15794488  0.12225429  0.62676390    -0.77400
C623        C  0.14861614  0.14598389  0.61278985     0.83400
N624        N  0.12436478  0.15931427  0.62206860    -0.79100
C625        C  0.44095440  0.15402463  0.64953082     0.80900
N626        N  0.43092621  0.17791152  0.66288373    -0.77400
C627        C  0.40841320  0.19269698  0.65202265     0.83300
N628        N  0.39523391  0.18287186  0.62781272    -0.77400
C629        C  0.40503881  0.15920937  0.61412841     0.83400
N630        N  0.42779080  0.14473049  0.62537101    -0.79100
C631        C  0.39699201  0.19551196  0.90791059     0.80900
N632        N  0.41011073  0.18593959  0.93229746    -0.77400
C633        C  0.40006692  0.16260139  0.94638001     0.83300
N634        N  0.37695615  0.14823852  0.93540873    -0.77400
C635        C  0.36363616  0.15744572  0.91116768     0.83400
N636        N  0.37408856  0.18096660  0.89745487    -0.79100
C637        C  0.15694484  0.41259603  0.86017967     0.80900
N638        N  0.18004964  0.39822632  0.87115613    -0.77400
C639        C  0.19336229  0.40742738  0.89540430     0.83300
N640        N  0.18290783  0.43094710  0.90911813    -0.77400
C641        C  0.16000989  0.44549738  0.89865739     0.83400
N642        N  0.14689932  0.43593223  0.87426407    -0.79100
O643        O  0.50087722  0.06581200  0.56117796    -0.87700
C644        C  0.06974340  0.11629747  0.55051087     0.88400
Mg645      Mg  0.49882879  0.03617719  0.59501586     1.58100
O646        O  0.06424030  0.06034886  0.00137185    -0.87400
O647        O  0.49880128  0.06540359  0.01407739    -0.74700
C648        C  0.12695362  0.47671840  0.59759761     0.93400
O649        O  0.04277127  0.09355850  0.60832626    -0.74500
O650        O  0.10447930  0.47589284  0.61271304    -0.82100
Mg651      Mg  0.51215260  0.10863394  0.57240875     1.58000
C652        C  0.12762520  0.50954101  0.97873619     0.93300
O653        O  0.47952381  0.12254908  0.53843763    -0.80300
H654        H  0.04190588  0.03888206  0.97157904    -0.05700
C655        C  0.11680241  0.04914272  0.56872564     0.88300
O656        O  0.51273929  0.50016408  0.56434866    -0.74800
O657        O  0.04672893  0.10521614  0.54289344    -0.87600
O658        O  0.11986959  0.03571281  0.97867476    -0.80400
C659        C  0.09748687  0.12745652  0.97737797     0.93400
C660        C  0.47904174  0.13027016  0.01233457     0.93300
Mg661      Mg  0.09399868  0.49837052  0.53563247     1.58000
O662        O  0.12555248  0.48397906  0.57123426    -0.80300
O663        O  0.06348789  0.51319915  0.99944054    -0.74600
O664        O  0.07125115  0.12622094  0.98511632    -0.80400
O665        O  0.47756207  0.11400210  0.60623725    -0.82100
O666        O  0.03735778  0.47941340  0.62148763    -0.80400
C667        C  0.05615617  0.03774077  0.98988789     0.87700
O668        O  0.05989291  0.50105657  0.56489781    -0.87600
O669        O  0.10493977  0.04144393  0.54612260    -0.87700
O670        O  0.10763222  0.04159862  0.59327491    -0.74700
Mg671      Mg  0.03538219  0.09514944  0.99966939     1.58000
O672        O  0.11274856  0.10491965  0.97652326    -0.82100
H673        H  0.47035840  0.04470080  0.53951773    -0.05800
O674        O  0.04229932  0.04644428  0.60544262    -0.87400
H675        H  0.06483918  0.06745294  0.63539278    -0.05700
H676        H  0.03756597  0.47172790  0.54286125    -0.05800
C677        C  0.05032833  0.06887927  0.61730509     0.87700
C678        C  0.48905389  0.05834166  0.53851261     0.88300
C679        C  0.03696941  0.49003410  0.55704489     0.88300
H680        H  0.13509032  0.06331170  0.56757526    -0.05800
O681        O  0.09396592  0.10679903  0.54224346    -0.74800
Mg682      Mg  0.07141987  0.51139966  0.60795393     1.58000
H683        H  0.06925090  0.13420644  0.56519859    -0.05800
C684        C  0.47724603  0.09810513  0.62829741     0.93300
O685        O  0.49575254  0.50135077  0.62887953    -0.82100
C686        C  0.51130554  0.47888402  0.62911122     0.93400
O687        O  0.50158501  0.13010627  0.99703889    -0.82100
Mg688      Mg  0.10766083  0.07069315  0.01129719     1.58200
O689        O  0.48438773  0.07165041  0.62672756    -0.80400
O690        O  0.12854110  0.49482657  0.00170814    -0.82100
N691        N  0.11089462  0.15535644  0.97532459    -0.02800
C692        C  0.10185357  0.17838491  0.99053718    -0.00200
C693        C  0.12003301  0.20136541  0.98746239    -0.23100
C694        C  0.14133759  0.19257130  0.96960524    -0.23300
C695        C  0.13560929  0.16432137  0.96238899    -0.00300
H696        H  0.11818133  0.22217871  0.99753015     0.13500
H697        H  0.15917433  0.20557768  0.96256539     0.13500
N698        N  0.47447097  0.11095535  0.65631243    -0.02800
C699        C  0.48938440  0.10163705  0.67944322    -0.00200
C700        C  0.48569201  0.11935315  0.70268629    -0.23100
C701        C  0.46771453  0.14070800  0.69383647    -0.23300
C702        C  0.46114733  0.13542816  0.66531278    -0.00300
H703        H  0.49550243  0.11723914  0.72365109     0.13500
H704        H  0.46028744  0.15833849  0.70692059     0.13500
N705        N  0.15466113  0.47641547  0.61160799    -0.02800
C706        C  0.17712440  0.49255831  0.60278945    -0.00200
C707        C  0.19939407  0.49156031  0.62224639    -0.23100
C708        C  0.19072526  0.47387393  0.64391632    -0.23300
C709        C  0.16327015  0.46469388  0.63711313    -0.00300
H710        H  0.22000483  0.50204239  0.62050006     0.13500
H711        H  0.20348584  0.46780483  0.66238199     0.13500
O712        O  0.99275718  0.31037791  0.80519958    -0.87700
C713        C  0.44018956  0.29916583  0.73783646     0.88400
Mg714      Mg  0.02162214  0.34517424  0.80689793     1.58100
O715        O  0.99709613  0.25107489  0.74166982    -0.87400
O716        O  0.99350024  0.26322907  0.80713557    -0.74700
C717        C  0.07975707  0.34810907  0.67826658     0.93400
O718        O  0.46303462  0.35682715  0.76432345    -0.74500
O719        O  0.07943426  0.36401169  0.70032273    -0.82100
Mg720      Mg  0.44933645  0.32072507  0.79527291     1.58000
C721        C  0.04568878  0.22888821  0.67745985     0.93300
O722        O  0.43712148  0.28574542  0.82789760    -0.80300
H723        H  0.01941983  0.22174525  0.76370835    -0.05700
C724        C  0.00666761  0.31889302  0.68925884     0.88300
O725        O  0.05819918  0.31542405  0.79248968    -0.74800
O726        O  0.45205064  0.29146929  0.76044142    -0.87600
O727        O  0.01963609  0.22941916  0.68508338    -0.80400
C728        C  0.43003720  0.22672939  0.70896951     0.93400
C729        C  0.42936084  0.25957548  0.82783661     0.93300
Mg730      Mg  0.05816462  0.28618531  0.71154968     1.58000
O731        O  0.07261362  0.32165519  0.67983977    -0.80300
O732        O  0.04424946  0.25017579  0.74221842    -0.74600
O733        O  0.43143927  0.23399612  0.73533142    -0.80400
O734        O  0.44425319  0.35495670  0.83004566    -0.82100
O735        O  0.07748103  0.37255973  0.76812535    -0.80400
C736        C  0.02001833  0.24004995  0.74952363     0.87700
O737        O  0.05611834  0.31582314  0.74538571    -0.87600
O738        O  0.01469538  0.29645678  0.70112018    -0.87700
O739        O  0.01422546  0.34357149  0.69823922    -0.74700
Mg740      Mg  0.46298901  0.24839448  0.77093474     1.58000
O741        O  0.45250956  0.22590855  0.69385087    -0.82100
H742        H  0.01508532  0.28891043  0.83499648    -0.05800
O743        O  0.01027148  0.35523658  0.76367300    -0.87400
H744        H  0.48775356  0.38423401  0.74137211    -0.05700
H745        H  0.08663490  0.29470801  0.76704581    -0.05800
C746        C  0.48725853  0.36632278  0.75605752     0.87700
C747        C  0.00083659  0.28776978  0.81668650     0.88300
C748        C  0.06794109  0.30835178  0.76805090     0.88300
H749        H  0.99215710  0.31746866  0.67117040    -0.05800
O750        O  0.44936079  0.29161693  0.71328846    -0.74800
Mg751      Mg  0.04484698  0.35864713  0.73415525     1.58000
H752        H  0.42190212  0.31333553  0.73898377    -0.05800
C753        C  0.45952345  0.37748808  0.82920095     0.93300
O754        O  0.05542611  0.38012830  0.80952223    -0.82100
C755        C  0.07796595  0.38029166  0.79422104     0.93400
O756        O  0.42844471  0.24486087  0.80486440    -0.82100
Mg757      Mg  0.98557276  0.26141288  0.69861141     1.58200
O758        O  0.98575837  0.37624704  0.82146020    -0.80400
O759        O  0.06124001  0.25135596  0.67768652    -0.82100
N760        N  0.40232721  0.22640896  0.69496432    -0.02800
C761        C  0.37985796  0.24254349  0.70378374    -0.00200
C762        C  0.35758238  0.24152761  0.68433490    -0.23100
C763        C  0.36625411  0.22383849  0.66266838    -0.23300
C764        C  0.39371665  0.21467470  0.66946566    -0.00300
H765        H  0.33696620  0.25199955  0.68608452     0.13500
H766        H  0.35349100  0.21775691  0.64420878     0.13500
N767        N  0.08254900  0.36095030  0.65024950    -0.02800
C768        C  0.06765181  0.35162213  0.62711246    -0.00200
C769        C  0.07136094  0.36932707  0.60386412    -0.23100
C770        C  0.08933094  0.39068645  0.61271778    -0.23300
C771        C  0.09587687  0.38542020  0.64124884    -0.00300
H772        H  0.06156449  0.36720415  0.58289403     0.13500
H773        H  0.09676562  0.40831192  0.59963175     0.13500
N774        N  0.44612831  0.40539244  0.83127642    -0.02800
C775        C  0.45517510  0.42842553  0.81607516    -0.00200
C776        C  0.43701147  0.45141545  0.81917553    -0.23100
C777        C  0.41570970  0.44262122  0.83703598    -0.23300
C778        C  0.42142396  0.41436218  0.84422817    -0.00300
H779        H  0.43887027  0.47223429  0.80912088     0.13500
H780        H  0.39788289  0.45563283  0.84409268     0.13500
O781        O  0.10292086  0.99642048  0.77493882    -0.87700
C782        C  0.02294893  0.99309918  0.80898975     0.88400
Mg783      Mg  0.11624262  0.03680448  0.75723576     1.58100
O784        O  0.03168744  0.45428276  0.74568513    -0.87400
O785        O  0.09494549  0.45063578  0.76658528    -0.74700
C786        C  0.50953525  0.07775547  0.68017874     0.93400
O787        O  0.06601133  0.04493047  0.80709649    -0.74500
O788        O  0.03578903  0.08371081  0.68307340    -0.82100
Mg789      Mg  0.08543389  0.00008978  0.81658923     1.58000
C790        C  0.47662244  0.46019009  0.68089769     0.93300
O791        O  0.10786440  0.45616227  0.82646726    -0.80300
H792        H  0.05245273  0.42596672  0.72103631    -0.05700
C793        C  0.49747166  0.03401106  0.74274334     0.88300
O794        O  0.10670298  0.01779805  0.71179978    -0.74800
O795        O  0.04595851  0.48324373  0.80017434    -0.87600
O796        O  0.48005406  0.44903232  0.70549081    -0.80400
C797        C  0.47936435  0.42953680  0.79631313     0.93400
C798        C  0.09658207  0.43168832  0.83007526     0.93300
Mg799      Mg  0.02069519  0.00748439  0.69067668     1.58000
O800        O  0.50021332  0.05216598  0.68235738    -0.80300
O801        O  0.04032279  0.46231456  0.70002707    -0.74600
O802        O  0.00483202  0.43228302  0.80602454    -0.80400
O803        O  0.12505445  0.02028211  0.83293591    -0.82100
O804        O  0.10038636  0.07798974  0.69949644    -0.80400
C805        C  0.04193210  0.44657187  0.72241779     0.87700
O806        O  0.06078728  0.02578219  0.70423757    -0.87600
O807        O  0.50629227  0.01108691  0.73261153    -0.87700
O808        O  0.01230294  0.05695291  0.74162688    -0.74700
Mg809      Mg  0.04969539  0.44112438  0.78593451     1.58000
O810        O  0.47364701  0.43255892  0.76999809    -0.82100
H811        H  0.13118938  0.47159676  0.75432915    -0.05800
O812        O  0.07421397  0.05106799  0.76121800    -0.87400
H813        H  0.05443263  0.08074264  0.78501188    -0.05700
H814        H  0.08550643  0.00586867  0.67541846    -0.05800
C815        C  0.06451353  0.05989500  0.78426934     0.87700
C816        C  0.11062312  0.47306102  0.76480684     0.88300
C817        C  0.08415805  0.01603544  0.69619465     0.88300
H818        H  0.47672806  0.03452968  0.75293543    -0.05800
O819        O  0.49995958  0.99149905  0.79414101    -0.74800
Mg820      Mg  0.05677740  0.06734872  0.72211923     1.58000
H821        H  0.02236790  0.00335975  0.82974821    -0.05800
C822        C  0.12828936  0.04660809  0.82756730     0.93300
O823        O  0.12745285  0.08020186  0.73765871    -0.82100
C824        C  0.12499068  0.08158391  0.71067369     0.93400
O825        O  0.06957729  0.42958122  0.82910430    -0.82100
Mg826      Mg  0.49002930  0.47181499  0.74941697     1.58200
O827        O  0.12544807  0.05657455  0.80225697    -0.80400
O828        O  0.47771516  0.48720716  0.67866942    -0.82100
N829        N  0.11370840  0.40624055  0.82623798    -0.02800
C830        C  0.10615190  0.38471111  0.80810368    -0.00200
C831        C  0.12782861  0.36478731  0.80596344    -0.23100
C832        C  0.14935924  0.37377776  0.82390117    -0.23300
C833        C  0.14037250  0.39915822  0.83641503    -0.00300
H834        H  0.12751706  0.34517018  0.79358053     0.13500
H835        H  0.16913135  0.36235637  0.82809400     0.13500
N836        N  0.15029306  0.07814128  0.69333339    -0.02800
C837        C  0.17225015  0.06047031  0.70086339    -0.00200
C838        C  0.19197722  0.05835241  0.67914433    -0.23100
C839        C  0.18247360  0.07581591  0.65756526    -0.23300
C840        C  0.15697107  0.08807785  0.66653495    -0.00300
H841        H  0.21175187  0.04621662  0.67941489     0.13500
H842        H  0.19362593  0.07982656  0.63769363     0.13500
N843        N  0.48037091  0.44287550  0.65549166    -0.02800
C844        C  0.49792352  0.45063735  0.63369886    -0.00200
C845        C  0.50042478  0.42890144  0.61389924    -0.23100
C846        C  0.48329535  0.40703797  0.62318391    -0.23300
C847        C  0.47086633  0.41591477  0.64858927    -0.00300
H848        H  0.51255773  0.42935465  0.59420033     0.13500
H849        H  0.47951202  0.38710927  0.61190934     0.13500
O850        O  0.30968759  0.30654435  0.49238531    -0.87700
C851        C  0.29799692  0.23802532  0.94175365     0.88400
Mg852      Mg  0.34454297  0.30863189  0.52117454     1.58100
O853        O  0.25020373  0.24294865  0.49854631    -0.87400
O854        O  0.26252054  0.30833532  0.49339317    -0.74700
C855        C  0.34798860  0.18077365  0.58040047     0.93400
O856        O  0.35594077  0.26504269  0.96342776    -0.74500
O857        O  0.36296979  0.20342364  0.58130031    -0.82100
Mg858      Mg  0.31973448  0.29578248  0.94926176     1.58000
C859        C  0.22899587  0.17939032  0.54954038     0.93300
O860        O  0.28457797  0.32837145  0.93665840    -0.80300
H861        H  0.22075059  0.26496401  0.52047964    -0.05700
C862        C  0.31782972  0.19066878  0.50860490     0.88300
O863        O  0.31475810  0.29478768  0.55788227    -0.74800
O864        O  0.29051697  0.26091571  0.95306578    -0.87600
O865        O  0.22826480  0.18719334  0.52340363    -0.80400
C866        C  0.22607264  0.20943554  0.93157958     0.93400
C867        C  0.25833361  0.32795690  0.92899758     0.93300
Mg868      Mg  0.28580764  0.21331949  0.55980710     1.58000
O869        O  0.32152892  0.18192301  0.57345180    -0.80300
O870        O  0.24921018  0.24358183  0.54569818    -0.74600
O871        O  0.23345060  0.23575045  0.93263914    -0.80400
O872        O  0.35414848  0.33034571  0.94337339    -0.82100
O873        O  0.37199111  0.27057903  0.57752135    -0.80400
C874        C  0.23913551  0.25088089  0.52132461     0.87700
O875        O  0.31495559  0.24764871  0.55669002    -0.87600
O876        O  0.29543505  0.20252589  0.51658033    -0.87700
O877        O  0.34254830  0.19986654  0.51585180    -0.74700
Mg878      Mg  0.24753578  0.27166533  0.96367868     1.58000
O879        O  0.22443483  0.19475780  0.95444054    -0.82100
H880        H  0.28836571  0.33665035  0.51415666    -0.05800
O881        O  0.35442447  0.26520605  0.51062835    -0.85800
H882        H  0.38344419  0.24258071  0.98876611    -0.05700
H883        H  0.29380362  0.26980933  0.58658287    -0.05800
C884        C  0.36550231  0.25722012  0.98785711     0.87700
C885        C  0.28712212  0.31809868  0.50032811     0.88300
C886        C  0.30751317  0.27050534  0.56799793     0.88300
H887        H  0.31633302  0.17235899  0.49448243    -0.05800
O888        O  0.29013007  0.21367874  0.95134724    -0.74800
Mg889      Mg  0.35776044  0.23627028  0.54575714     1.58000
H890        H  0.31217206  0.23873750  0.92352549    -0.05800
C891        C  0.37674203  0.32977349  0.95872893     0.93300
O892        O  0.37956626  0.31180954  0.55500050    -0.82100
C893        C  0.37990918  0.29660393  0.57767807     0.93400
O894        O  0.24393746  0.30479831  0.92831572    -0.82100
Mg895      Mg  0.26001418  0.19967553  0.48793247     1.58200
O896        O  0.37558557  0.32253758  0.48513578    -0.80400
O897        O  0.25231274  0.17845128  0.56377550    -0.82100
N898        N  0.22667627  0.19503057  0.90411627    -0.02800
C899        C  0.24325704  0.20369553  0.88186421    -0.00200
C900        C  0.24282329  0.18397621  0.85992822    -0.23100
C901        C  0.22508595  0.16234768  0.86846508    -0.23300
C902        C  0.21524510  0.16939478  0.89553594    -0.00300
H903        H  0.25362705  0.18558614  0.83952469     0.13500
H904        H  0.21935040  0.14376171  0.85578958     0.13500
N905        N  0.36219165  0.15328306  0.58008493    -0.02800
C906        C  0.35344990  0.13095384  0.56359272    -0.00200
C907        C  0.37320980  0.10904178  0.56403012    -0.23100
C908        C  0.39491538  0.11774916  0.58180538    -0.23300
C909        C  0.38783040  0.14488331  0.59159913    -0.00300
H910        H  0.37160282  0.08858846  0.55319417     0.13500
H911        H  0.41357623  0.10517800  0.58756680     0.13500
N912        N  0.40461723  0.33149025  0.94536082    -0.02800
C913        C  0.42755631  0.31610319  0.95455224    -0.00200
C914        C  0.45052166  0.31892689  0.93644136    -0.23100
C915        C  0.44184988  0.33685234  0.91504053    -0.23300
C916        C  0.41367813  0.34436093  0.92065701    -0.00300
H917        H  0.47126577  0.30871070  0.93845055     0.13500
H918        H  0.45491425  0.34378296  0.89723773     0.13500
O919        O  0.02532167  0.20426895  0.56089038    -0.87700
C920        C  0.05954397  0.28399294  0.56381601     0.88400
Mg921      Mg  0.00731679  0.19110984  0.52063933     1.58100
O922        O  0.99623181  0.27577836  0.60232732    -0.87400
O923        O  0.01668621  0.21231000  0.60654693    -0.74700
C924        C  0.42872549  0.29659222  0.97899519     0.93400
O925        O  0.05706211  0.24146809  0.51242935    -0.74500
O926        O  0.43196963  0.27026728  0.97362640    -0.82100
Mg927      Mg  0.06698245  0.22179313  0.55715950     1.58000
C928        C  0.43203116  0.33158074  0.59590128     0.93300
O929        O  0.07694872  0.19902111  0.60109111    -0.80300
H930        H  0.47151410  0.25586873  0.63114976    -0.05700
C931        C  0.99250773  0.30988687  0.52229832     0.88300
O932        O  0.46206556  0.20063010  0.53998271    -0.74800
O933        O  0.05072311  0.26107164  0.57395352    -0.87600
O934        O  0.45663782  0.32798958  0.60707516    -0.80400
C935        C  0.04749566  0.32774573  0.62637692     0.93400
C936        C  0.08038302  0.21018346  0.62568167     0.93300
Mg937      Mg  0.44077595  0.28680092  0.54933404     1.58000
O938        O  0.43157164  0.30656843  0.50431268    -0.80300
O939        O  0.45031556  0.26779578  0.59476903    -0.74600
O940        O  0.05681212  0.30215450  0.62419863    -0.80400
O941        O  0.08335698  0.18252640  0.53659359    -0.82100
O942        O  0.44915643  0.20614989  0.98010005    -0.80400
C943        C  0.47286134  0.26603374  0.61037267     0.87700
O944        O  0.45409743  0.24641604  0.53163001    -0.87600
O945        O  0.48280376  0.30106414  0.54534979    -0.87700
O946        O  0.99101011  0.29491529  0.99946575    -0.74700
Mg947      Mg  0.03632100  0.25747828  0.61588960     1.58000
O948        O  0.02124231  0.33370617  0.62348744    -0.82100
H949        H  0.00454947  0.17596162  0.58554222    -0.05800
O950        O  0.01106339  0.23322524  0.00639583    -0.87400
H951        H  0.03465869  0.25332207  0.97681397    -0.05700
H952        H  0.42582314  0.22159723  0.55223487    -0.05800
C953        C  0.03407503  0.24306982  0.99757621     0.87700
C954        C  0.01507423  0.19656408  0.58415832     0.88300
C955        C  0.44639098  0.22305801  0.54176002     0.88300
H956        H  0.00258977  0.33073340  0.52155424    -0.05800
O957        O  0.04471563  0.30693727  0.56493204    -0.74800
Mg958      Mg  0.47158847  0.25007485  0.98997792     1.58000
H959        H  0.08028564  0.28450705  0.55361969    -0.05800
C960        C  0.07765329  0.17950093  0.01028569     0.93300
O961        O  0.48744183  0.17956384  0.97747022    -0.82100
C962        C  0.46043719  0.18167509  0.97649190     0.93400
O963        O  0.07929709  0.23720074  0.62790441    -0.82100
Mg964      Mg  0.00024510  0.31734359  0.58444575     1.58200
O965        O  0.05219011  0.18225212  0.00056241    -0.80400
O966        O  0.42956638  0.33019923  0.56891600    -0.82100
N967        N  0.40673097  0.32813124  0.61324472    -0.02800
C968        C  0.38477915  0.31045326  0.60571608    -0.00200
C969        C  0.36505406  0.30832897  0.62743634    -0.23100
C970        C  0.37455221  0.32579547  0.64901488    -0.23300
C971        C  0.40004985  0.33806588  0.64004419    -0.00300
H972        H  0.34528340  0.29618730  0.62716652     0.13500
H973        H  0.36339894  0.32980242  0.66888702     0.13500
N974        N  0.07663089  0.19287531  0.65109043    -0.02800
C975        C  0.05907396  0.20064029  0.67287895    -0.00200
C976        C  0.05657308  0.17890680  0.69268143    -0.23100
C977        C  0.07370717  0.15704297  0.68340228    -0.23300
C978        C  0.08613774  0.16591679  0.65799713    -0.00300
H979        H  0.04443768  0.17936193  0.71237867     0.13500
H980        H  0.07749167  0.13711610  0.69467969     0.13500
N981        N  0.44330709  0.15622852  0.98031737    -0.02800
C982        C  0.45086013  0.13469222  0.99844489    -0.00200
C983        C  0.42918334  0.11476837  0.00057494    -0.23100
C984        C  0.40765483  0.12376710  0.98263912    -0.23300
C985        C  0.41664289  0.14915235  0.97013616    -0.00300
H986        H  0.42949262  0.09514748  0.01295120     0.13500
H987        H  0.38788223  0.11234871  0.97844140     0.13500
O988        O  0.30553637  0.06532036  0.49735194    -0.87700
C989        C  0.23682794  0.11644122  0.50776561     0.88400
Mg990      Mg  0.30876979  0.03702528  0.96241146     1.58100
O991        O  0.24163565  0.05934703  0.55565949    -0.87400
O992        O  0.30687730  0.06450366  0.54450299    -0.74700
C993        C  0.18086293  0.47794282  0.95687045     0.93400
O994        O  0.26486894  0.09449449  0.94991081    -0.74500
O995        O  0.20374553  0.47659213  0.94232757    -0.82100
Mg996      Mg  0.29476623  0.10843087  0.48690841     1.58000
C997        C  0.17944519  0.00820042  0.57561436     0.93300
O998        O  0.32651114  0.12060068  0.52218352    -0.80300
H999        H  0.26369886  0.03738158  0.58529847    -0.05700
C1000       C  0.19084870  0.04939428  0.98669156     0.88300
O1001       O  0.29482629  0.49986534  0.49178035    -0.74800
O1002       O  0.25948009  0.10468910  0.51542231    -0.87600
O1003       O  0.18680041  0.03439095  0.57640471    -0.80400
C1004       C  0.20715059  0.12564132  0.57977867     0.93400
C1005       C  0.32603118  0.12824992  0.54828040     0.93300
Mg1006     Mg  0.21307527  0.49824746  0.51937785     1.58000
O1007       O  0.18181891  0.48495385  0.48328330    -0.80300
O1008       O  0.24297586  0.51217750  0.55637873    -0.74600
O1009       O  0.23354240  0.12485131  0.57263837    -0.80400
O1010       O  0.33031761  0.11434383  0.95415129    -0.82100
O1011       O  0.27229462  0.48043578  0.93521260    -0.80400
C1012       C  0.24978888  0.03654423  0.56671390     0.87700
O1013       O  0.24771407  0.50133162  0.49091983    -0.87600
O1014       O  0.20247019  0.04151161  0.50936127    -0.87700
O1015       O  0.20026481  0.04198755  0.96218208    -0.74700
Mg1016     Mg  0.26992402  0.09414814  0.55867058     1.58000
O1017       O  0.19244488  0.10276940  0.58046274    -0.82100
H1018       H  0.33544697  0.04362132  0.51930977    -0.05800
O1019       O  0.26554767  0.04731026  0.95153580    -0.87400
H1020       H  0.24356342  0.06902425  0.92164610    -0.05700
H1021       H  0.26951166  0.47115458  0.51236020    -0.05800
C1022       C  0.25762615  0.07002295  0.94010770     0.87700
C1023       C  0.31686939  0.05743727  0.52014052     0.88300
C1024       C  0.27043184  0.48985062  0.49871375     0.88300
H1025       H  0.17250601  0.06350312  0.98775396    -0.05800
O1026       O  0.21233879  0.10693970  0.51516497    -0.74800
Mg1027     Mg  0.23693894  0.01205827  0.94788767     1.58000
H1028       H  0.23788007  0.13495967  0.49388393    -0.05800
C1029       C  0.32963657  0.09965113  0.93128038     0.93300
O1030       O  0.31261949  0.50433440  0.92682808    -0.82100
C1031       C  0.29841126  0.48107722  0.92757971     0.93400
O1032       O  0.30281319  0.12947675  0.56239385    -0.82100
Mg1033     Mg  0.19853878  0.06985429  0.54483572     1.58200
O1034       O  0.32255978  0.07325300  0.93195162    -0.80400
O1035       O  0.17804039  0.49429425  0.55221748    -0.82100
N1036       N  0.32999384  0.11406803  0.90390286    -0.02800
C1037       C  0.31397547  0.10543552  0.88101660    -0.00200
C1038       C  0.31516285  0.12519162  0.85916339    -0.23100
C1039       C  0.33280220  0.14673781  0.86846664    -0.23300
C1040       C  0.34186716  0.13968030  0.89593799    -0.00300
H1041       H  0.30492174  0.12368087  0.83834910     0.13500
H1042       H  0.33888668  0.16535758  0.85607867     0.13500
N1043       N  0.19278664  0.15313433  0.58037049    -0.02800
C1044       C  0.20170073  0.17615131  0.56488334    -0.00200
C1045       C  0.18215670  0.19818784  0.56612800    -0.23100
C1046       C  0.16033505  0.18889297  0.58318056    -0.23300
C1047       C  0.16703053  0.16125313  0.59184849    -0.00300
H1048       H  0.18391786  0.21906229  0.55616994     0.13500
H1049       H  0.14171001  0.20135488  0.58908157     0.13500
N1050       N  0.15343633  0.47850710  0.94226934    -0.02800
C1051       C  0.13089715  0.49476530  0.95099737    -0.00200
C1052       C  0.10917511  0.49452231  0.93089801    -0.23100
C1053       C  0.11815595  0.47721199  0.90904078    -0.23300
C1054       C  0.14527736  0.46741896  0.91629934    -0.00300
H1055       H  0.08862018  0.50515990  0.93238488     0.13500
H1056       H  0.10576992  0.47175279  0.89013534     0.13500
O1057       O  0.30927529  0.25132329  0.81565048    -0.87700
C1058       C  0.29936819  0.32000312  0.86646567     0.88400
Mg1059     Mg  0.34391262  0.24824258  0.78719082     1.58100
O1060       O  0.25145296  0.31530908  0.80921733    -0.87400
O1061       O  0.26216321  0.24985277  0.81479228    -0.74700
C1062       C  0.34984026  0.37563488  0.72679195     0.93400
O1063       O  0.35672543  0.29197667  0.84438207    -0.74500
O1064       O  0.36454201  0.35276037  0.72610047    -0.82100
Mg1065     Mg  0.32005704  0.26204391  0.85867900     1.58000
C1066       C  0.23095833  0.37825150  0.75829780     0.93300
O1067       O  0.28470752  0.23042157  0.87136299    -0.80300
H1068       H  0.22154231  0.29361240  0.78725770    -0.05700
C1069       C  0.32015978  0.36643261  0.79880164     0.88300
O1070       O  0.31400759  0.26216981  0.75019096    -0.74800
O1071       O  0.29144608  0.29729185  0.85503578    -0.87600
O1072       O  0.23047984  0.37059637  0.78439261    -0.80400
C1073       C  0.22736182  0.34963124  0.87529705     0.93400
C1074       C  0.25859193  0.23105975  0.87899914     0.93300
Mg1075     Mg  0.28706294  0.34414361  0.74789781     1.58000
O1076       O  0.32344825  0.37484726  0.73393303    -0.80300
O1077       O  0.25010959  0.31449868  0.76206569    -0.74600
O1078       O  0.23443839  0.32323294  0.87462603    -0.80400
O1079       O  0.35324984  0.22657923  0.86422991    -0.82100
O1080       O  0.37018185  0.28438267  0.73015905    -0.80400
C1081       C  0.24011943  0.30742828  0.78642797     0.87700
O1082       O  0.31534978  0.30934027  0.75090329    -0.87600
O1083       O  0.29750845  0.35467870  0.79114684    -0.87700
O1084       O  0.34464883  0.35693337  0.79139881    -0.74700
Mg1085     Mg  0.24822438  0.28700727  0.84416176     1.58000
O1086       O  0.22667764  0.36432291  0.85242599    -0.82100
H1087       H  0.28748004  0.22114180  0.79421423    -0.05800
O1088       O  0.35451246  0.29150817  0.79720287    -0.87400
H1089       H  0.38447716  0.31349804  0.81880839    -0.05700
H1090       H  0.29328167  0.28737109  0.72127064    -0.05800
C1091       C  0.36613673  0.29938676  0.81987219     0.87700
C1092       C  0.28655842  0.23983917  0.80785898     0.88300
C1093       C  0.30719434  0.28653586  0.73985339     0.88300
H1094       H  0.31910712  0.38495066  0.81268408    -0.05800
O1095       O  0.29212631  0.34447535  0.85666413    -0.74800
Mg1096     Mg  0.35844637  0.31984714  0.76172747     1.58000
H1097       H  0.31343124  0.31900249  0.88492671    -0.05800
C1098       C  0.37613417  0.22794250  0.84969154     0.93300
O1099       O  0.37894659  0.24429125  0.75435341    -0.82100
C1100       C  0.37753813  0.25819260  0.73095433     0.93400
O1101       O  0.24437689  0.25431353  0.87974404    -0.82100
Mg1102     Mg  0.26222435  0.35841917  0.81966280     1.58200
O1103       O  0.37517533  0.23495789  0.82328339    -0.80400
O1104       O  0.25417449  0.37947487  0.74418104    -0.82100
N1105       N  0.36420934  0.40312543  0.72620937    -0.02800
C1106       C  0.35530059  0.42613865  0.74170666    -0.00200
C1107       C  0.37484766  0.44817228  0.74046767    -0.23100
C1108       C  0.39666610  0.43887982  0.72340974    -0.23300
C1109       C  0.38996646  0.41124391  0.71473250    -0.00300
H1110       H  0.37309097  0.46904356  0.75043348     0.13500
H1111       H  0.41529277  0.45134051  0.71751284     0.13500
N1112       N  0.22700597  0.36404976  0.90267350    -0.02800
C1113       C  0.24302825  0.35542156  0.92555898    -0.00200
C1114       C  0.24183838  0.37517896  0.94741108    -0.23100
C1115       C  0.22419457  0.39672165  0.93810752    -0.23300
C1116       C  0.21512966  0.38966137  0.91063679    -0.00300
H1117       H  0.25208106  0.37367153  0.96822488     0.13500
H1118       H  0.21810885  0.41534226  0.95049423     0.13500
N1119       N  0.40355716  0.22852549  0.86429870    -0.02800
C1120       C  0.42608744  0.24479992  0.85557690    -0.00200
C1121       C  0.44780276  0.24457224  0.87568395    -0.23100
C1122       C  0.43882770  0.22725534  0.89753840    -0.23300
C1123       C  0.41171584  0.21744290  0.89027163    -0.00300
H1124       H  0.46835053  0.25522401  0.87420373     0.13500
H1125       H  0.45121163  0.22180553  0.91644811     0.13500
O1126       O  0.24206455  0.99765458  0.74989681    -0.87700
C1127       C  0.19151304  0.00722858  0.81872408     0.88400
Mg1128     Mg  0.27120356  0.46331670  0.74678575     1.58100
O1129       O  0.24733522  0.05655283  0.81419885    -0.87400
O1130       O  0.24227104  0.04479383  0.74870326    -0.74700
C1131       C  0.33093934  0.45944479  0.87500905     0.93400
O1132       O  0.21446054  0.44987783  0.79073429    -0.74500
O1133       O  0.33257398  0.44476075  0.85215121    -0.82100
Mg1134     Mg  0.19925685  0.98628494  0.76082553     1.58000
C1135       C  0.29867593  0.07796810  0.87757912     0.93300
O1136       O  0.18503580  0.02059546  0.72905872    -0.80300
H1137       H  0.26865880  0.08665655  0.79242728    -0.05700
C1138       C  0.25901695  0.48803452  0.86483148     0.88300
O1139       O  0.30780805  0.99357240  0.76089334    -0.74800
O1140       O  0.20259761  0.01521904  0.79595386    -0.87600
O1141       O  0.27243089  0.07837860  0.86992154    -0.80400
C1142       C  0.18027089  0.07977886  0.84784938     0.93400
C1143       C  0.17712042  0.04662119  0.72890109     0.93300
Mg1144     Mg  0.30947843  0.02167114  0.84290245     1.58000
O1145       O  0.32356393  0.98576014  0.87394446    -0.80300
O1146       O  0.29450223  0.05834055  0.81319154    -0.74600
O1147       O  0.18143654  0.07254776  0.82144043    -0.80400
O1148       O  0.19403954  0.45344029  0.72528103    -0.82100
O1149       O  0.32874311  0.43718674  0.78319029    -0.80400
C1150       C  0.26990128  0.06810556  0.80625641     0.87700
O1151       O  0.30681338  0.99294982  0.80804539    -0.87600
O1152       O  0.26649766  0.01092311  0.85351721    -0.87700
O1153       O  0.26688204  0.46368638  0.85523979    -0.74700
Mg1154     Mg  0.21248293  0.05864317  0.78540688     1.58000
O1155       O  0.20286177  0.08034808  0.86320875    -0.82100
H1156       H  0.26322571  0.01980966  0.72000702    -0.05800
O1157       O  0.26157399  0.45253163  0.79001395    -0.87400
H1158       H  0.24066976  0.42236781  0.81210960    -0.05700
H1159       H  0.33627086  0.01495419  0.78610811    -0.05800
C1160       C  0.23917705  0.44067767  0.79798647     0.87700
C1161       C  0.24951322  0.02050936  0.73858963     0.88300
C1162       C  0.31788332  0.00087527  0.78526570     0.88300
H1163       H  0.24484193  0.48874974  0.88305944    -0.05800
O1164       O  0.20107494  0.01504841  0.84315402    -0.74800
Mg1165     Mg  0.29699607  0.44967913  0.81866328     1.58000
H1166       H  0.17357256  0.99258814  0.81781390    -0.05800
C1167       C  0.20901334  0.43078558  0.72618564     0.93300
O1168       O  0.30468844  0.42843793  0.74282392    -0.82100
C1169       C  0.32800780  0.42937847  0.75705473     0.93400
O1170       O  0.17746273  0.06182679  0.75157855    -0.82100
Mg1171     Mg  0.23727863  0.04578847  0.85732015     1.58200
O1172       O  0.23547213  0.43192798  0.73314041    -0.80400
O1173       O  0.31307667  0.05481173  0.87826000    -0.82100
N1174       N  0.19480150  0.40329936  0.72650062    -0.02800
C1175       C  0.20353810  0.38096681  0.74299121    -0.00200
C1176       C  0.18377158  0.35906146  0.74255687    -0.23100
C1177       C  0.16206699  0.36777533  0.72478451    -0.23300
C1178       C  0.16915898  0.39490667  0.71498847    -0.00300
H1179       H  0.18537416  0.33860757  0.75339197     0.13500
H1180       H  0.14340226  0.35520883  0.71902505     0.13500
N1181       N  0.15239336  0.08149808  0.86121178    -0.02800
C1182       C  0.12945281  0.06612008  0.85201008    -0.00200
C1183       C  0.10648345  0.06894638  0.87011572    -0.23100
C1184       C  0.11515519  0.08686280  0.89152468    -0.23300
C1185       C  0.14333075  0.09436305  0.88591785    -0.00300
H1186       H  0.08573786  0.05873504  0.86809958     0.13500
H1187       H  0.10208924  0.09379132  0.90932740     0.13500
N1188       N  0.33033834  0.44504764  0.90247637    -0.02800
C1189       C  0.31375506  0.45371588  0.92472538    -0.00200
C1190       C  0.31419587  0.43400416  0.94666822    -0.23100
C1191       C  0.33193933  0.41237680  0.93813770    -0.23300
C1192       C  0.34177625  0.41941726  0.91106405    -0.00300
H1193       H  0.30339201  0.43561827  0.96707118     0.13500
H1194       H  0.33768115  0.39379622  0.95081870     0.13500
C1195       C  0.15400660  0.14898727  0.94178080     0.80900
N1196       N  0.17823040  0.16223775  0.93241216    -0.77400
C1197       C  0.19280321  0.15202591  0.90956648     0.83300
N1198       N  0.18243476  0.12868451  0.89536281    -0.77400
C1199       C  0.15834755  0.11531579  0.90431876     0.83400
N1200       N  0.14412313  0.12579716  0.92746605    -0.79100
C1201       C  0.39867251  0.86532585  0.40226612     0.80900
N1202       N  0.37458514  0.87869344  0.41122521    -0.77400
C1203       C  0.36421885  0.90203959  0.39702742     0.83300
N1204       N  0.37879386  0.91225748  0.37418605    -0.77400
C1205       C  0.40301795  0.89900910  0.36481512     0.83400
N1206       N  0.41289918  0.87581383  0.37912315    -0.79100
C1207       C  0.15195963  0.90923400  0.19245752     0.80900
N1208       N  0.16176357  0.93289755  0.17877404    -0.77400
C1209       C  0.14858765  0.94271724  0.15455964     0.83300
N1210       N  0.12608196  0.92792547  0.14369352    -0.77400
C1211       C  0.11605606  0.90403750  0.15704373     0.83400
N1212       N  0.12921408  0.89474916  0.18120869    -0.79100
C1213       C  0.41380617  0.86132667  0.15710107     0.80900
N1214       N  0.43785686  0.87495487  0.14816934    -0.77400
C1215       C  0.44766702  0.89886398  0.16204917     0.83300
N1216       N  0.43264474  0.90930474  0.18452180    -0.77400
C1217       C  0.40839452  0.89596937  0.19379681     0.83400
N1218       N  0.39907031  0.87224078  0.17981770    -0.79100
C1219       C  0.10935398  0.64888121  0.14454550     0.80900
N1220       N  0.11916829  0.62497191  0.15842233    -0.77400
C1221       C  0.14321865  0.61134582  0.14948463     0.83300
N1222       N  0.15794935  0.62226261  0.12676680    -0.77400
C1223       C  0.14862114  0.64599157  0.11279159     0.83400
N1224       N  0.12437184  0.65932469  0.12207147    -0.79100
C1225       C  0.44096339  0.65403056  0.14953150     0.80900
N1226       N  0.43093465  0.67791625  0.16288554    -0.77400
C1227       C  0.40841887  0.69269951  0.15202784     0.83300
N1228       N  0.39523764  0.68287418  0.12781894    -0.77400
C1229       C  0.40504340  0.65921308  0.11413280     0.83400
N1230       N  0.42779782  0.64473573  0.12537300    -0.79100
C1231       C  0.39699266  0.69551221  0.40792278     0.80900
N1232       N  0.41010477  0.68594454  0.43231441    -0.77400
C1233       C  0.40006203  0.66260473  0.44639463     0.83300
N1234       N  0.37695896  0.64823472  0.43541636    -0.77400
C1235       C  0.36364559  0.65743726  0.41116983     0.83400
N1236       N  0.37409714  0.68095998  0.39745953    -0.79100
C1237       C  0.15694770  0.91258731  0.36018689     0.80900
N1238       N  0.18005234  0.89821833  0.37116450    -0.77400
C1239       C  0.19336620  0.90742217  0.39541098     0.83300
N1240       N  0.18291266  0.93094376  0.40912239    -0.77400
C1241       C  0.16001504  0.94549365  0.39866000     0.83400
N1242       N  0.14690373  0.93592586  0.37426821    -0.79100
O1243       O  0.50087960  0.56580822  0.06118195    -0.87700
C1244       C  0.06974329  0.61629408  0.05051297     0.88400
Mg1245     Mg  0.49883449  0.53617731  0.09502403     1.58100
O1246       O  0.06423655  0.56035454  0.50136628    -0.87400
O1247       O  0.49879643  0.56541263  0.51407417    -0.74700
C1248       C  0.12695996  0.97672076  0.09760373     0.93400
O1249       O  0.04277189  0.59356192  0.10832726    -0.74500
O1250       O  0.10448716  0.97589849  0.11272167    -0.82100
Mg1251     Mg  0.51215143  0.60863193  0.07240783     1.58000
C1252       C  0.12762602  0.00954565  0.47873100     0.93300
O1253       O  0.47952097  0.62254043  0.03843116    -0.80300
H1254       H  0.04190245  0.53888886  0.47157219    -0.05700
C1255       C  0.11680743  0.54914189  0.06872881     0.88300
O1256       O  0.51274443  0.00016110  0.06436007    -0.74800
O1257       O  0.04672910  0.60521286  0.04289456    -0.87600
O1258       O  0.11986736  0.53571670  0.47866882    -0.80400
C1259       C  0.09748434  0.62746072  0.47737301     0.93400
C1260       C  0.47904082  0.63028176  0.51234329     0.93300
Mg1261     Mg  0.09400227  0.99836777  0.03563971     1.58000
O1262       O  0.12555700  0.98397837  0.07123980    -0.80300
O1263       O  0.06348617  0.01320490  0.49943311    -0.74600
O1264       O  0.07124885  0.62622498  0.48511241    -0.80400
O1265       O  0.47756177  0.61400087  0.10623847    -0.82100
O1266       O  0.03736574  0.97941727  0.12149738    -0.80400
C1267       C  0.05615265  0.53774688  0.48988142     0.87700
O1268       O  0.05989810  0.00105624  0.06490667    -0.87600
O1269       O  0.10494328  0.54144131  0.04612713    -0.87700
O1270       O  0.10763794  0.54160057  0.09327919    -0.74700
Mg1271     Mg  0.03537859  0.59515669  0.49966786     1.58000
O1272       O  0.11274724  0.60492454  0.47651988    -0.82100
H1273       H  0.47036352  0.54469229  0.03952235    -0.05800
O1274       O  0.04230494  0.54644750  0.10544719    -0.87400
H1275       H  0.06484310  0.56746074  0.13539567    -0.05700
H1276       H  0.03757174  0.97172394  0.04287484    -0.05800
C1277       C  0.05033206  0.56888418  0.11730776     0.87700
C1278       C  0.48905784  0.55833475  0.03851672     0.88300
C1279       C  0.03697478  0.99003160  0.05705612     0.88300
H1280       H  0.13509504  0.56331031  0.06757616    -0.05800
O1281       O  0.09396621  0.60679546  0.04224693    -0.74800
Mg1282     Mg  0.07142649  0.01140368  0.10796134     1.58000
H1283       H  0.06925010  0.63420344  0.06520052    -0.05800
C1284       C  0.47725202  0.59810720  0.12830141     0.93300
O1285       O  0.49576151  0.00135507  0.12889183    -0.82100
C1286       C  0.51131385  0.97888793  0.12912196     0.93400
O1287       O  0.50158110  0.63011616  0.49704293    -0.82100
Mg1288     Mg  0.10765813  0.57069664  0.51129243     1.58200
O1289       O  0.48439625  0.57165314  0.12673380    -0.80400
O1290       O  0.12854029  0.99483087  0.50170282    -0.82100
N1291       N  0.11088974  0.65536122  0.47531500    -0.02800
C1292       C  0.10184601  0.67839082  0.49052438    -0.00200
C1293       C  0.12002117  0.70137388  0.48744406    -0.23100
C1294       C  0.14132641  0.69257961  0.46958762    -0.23300
C1295       C  0.13560291  0.66432721  0.46237732    -0.00300
H1296       H  0.11816736  0.72218845  0.49750856     0.13500
H1297       H  0.15916100  0.70558706  0.46254513     0.13500
N1298       N  0.47447921  0.61096046  0.15631553    -0.02800
C1299       C  0.48939175  0.60164324  0.17944775    -0.00200
C1300       C  0.48570031  0.61936179  0.20268901    -0.23100
C1301       C  0.46772444  0.64071690  0.19383716    -0.23300
C1302       C  0.46115696  0.63543491  0.16531383    -0.00300
H1303       H  0.49551026  0.61724864  0.22365402     0.13500
H1304       H  0.46029840  0.65834900  0.20692002     0.13500
N1305       N  0.15466880  0.97641706  0.11161100    -0.02800
C1306       C  0.17713215  0.99255765  0.10278898    -0.00200
C1307       C  0.19940395  0.99155904  0.12224354    -0.23100
C1308       C  0.19073617  0.97387438  0.14391546    -0.23300
C1309       C  0.16327961  0.96469615  0.13711557    -0.00300
H1310       H  0.22001531  0.00204005  0.12049463     0.13500
H1311       H  0.20349831  0.96780483  0.16237976     0.13500
O1312       O  0.99276575  0.81037251  0.30520170    -0.87700
C1313       C  0.44019069  0.79915994  0.23784713     0.88400
Mg1314     Mg  0.02162768  0.84517086  0.30689808     1.58100
O1315       O  0.99710399  0.75107730  0.24167090    -0.87400
O1316       O  0.99351432  0.76322414  0.30713853    -0.74700
C1317       C  0.07975701  0.84811868  0.17826490     0.93400
O1318       O  0.46303811  0.85681851  0.26432839    -0.74500
O1319       O  0.07943870  0.86401760  0.20032386    -0.82100
Mg1320     Mg  0.44934360  0.82071701  0.29528072     1.58000
C1321       C  0.04569041  0.72890069  0.17745463     0.93300
O1322       O  0.43713156  0.78573714  0.32790673    -0.80300
H1323       H  0.01943228  0.72174586  0.26370286    -0.05700
C1324       C  0.00666932  0.81890050  0.18925876     0.88300
O1325       O  0.05820525  0.81542240  0.29248688    -0.74800
O1326       O  0.45205433  0.79146199  0.26045027    -0.87600
O1327       O  0.01963906  0.72942873  0.18508213    -0.80400
C1328       C  0.43004473  0.72672606  0.20897724     0.93400
C1329       C  0.42937429  0.75956616  0.32784814     0.93300
Mg1330     Mg  0.05816673  0.78619286  0.21154350     1.58000
O1331       O  0.07261135  0.82166536  0.17983492    -0.80300
O1332       O  0.04425726  0.75017918  0.24221052    -0.74600
O1333       O  0.43144859  0.73398853  0.23534033    -0.80400
O1334       O  0.44426333  0.85494681  0.33005413    -0.82100
O1335       O  0.07748667  0.87255674  0.26812808    -0.80400
C1336       C  0.02002781  0.74005240  0.24951950     0.87700
O1337       O  0.05612341  0.81582581  0.24538281    -0.87600
O1338       O  0.01469590  0.79646449  0.20112142    -0.87700
O1339       O  0.01422900  0.84357882  0.19823823    -0.74700
Mg1340     Mg  0.46300106  0.74838854  0.27094074     1.58000
O1341       O  0.45251540  0.72591080  0.19385573    -0.82100
H1342       H  0.01509804  0.78890811  0.33499800    -0.05800
O1343       O  0.01027534  0.85523350  0.26367378    -0.87400
H1344       H  0.48775175  0.88422547  0.24137179    -0.05700
H1345       H  0.08663995  0.79470845  0.26704045    -0.05800
C1346       C  0.48726024  0.86631603  0.25605898     0.87700
C1347       C  0.00084831  0.78776564  0.31668864     0.88300
C1348       C  0.06794663  0.80835219  0.26804714     0.88300
H1349       H  0.99215921  0.81747625  0.17117026    -0.05800
O1350       O  0.44936162  0.79161660  0.21329735    -0.74800
Mg1351     Mg  0.04485127  0.85864973  0.23415624     1.58000
H1352       H  0.42190170  0.81332741  0.23899777    -0.05800
C1353       C  0.45952882  0.87748098  0.32920254     0.93300
O1354       O  0.05542835  0.88012643  0.30952248    -0.82100
C1355       C  0.07796994  0.88028717  0.29422418     0.93400
O1356       O  0.42846278  0.74484794  0.30487774    -0.82100
Mg1357     Mg  0.98557501  0.76141813  0.19861444     1.58200
O1358       O  0.98576303  0.87624291  0.32145932    -0.80400
O1359       O  0.06123800  0.75137061  0.17767591    -0.82100
N1360       N  0.40233329  0.72640406  0.19497497    -0.02800
C1361       C  0.37986332  0.74253504  0.20379857    -0.00200
C1362       C  0.35758548  0.74151840  0.18435242    -0.23100
C1363       C  0.36625674  0.72383314  0.16268268    -0.23300
C1364       C  0.39372119  0.71467224  0.16947563    -0.00300
H1365       H  0.33696867  0.75198864  0.18610542     0.13500
H1366       H  0.35349234  0.71775230  0.14422355     0.13500
N1367       N  0.08254706  0.86096408  0.15024958    -0.02800
C1368       C  0.06764811  0.85164070  0.12711141    -0.00200
C1369       C  0.07135531  0.86935091  0.10386681    -0.23100
C1370       C  0.08932674  0.89070763  0.11272351    -0.23300
C1371       C  0.09587559  0.88543490  0.14125280    -0.00300
H1372       H  0.06155752  0.86723239  0.08289661     0.13500
H1373       H  0.09676116  0.90833536  0.09964032     0.13500
N1374       N  0.44612709  0.90538290  0.33126869    -0.02800
C1375       C  0.45517075  0.92841483  0.31606350    -0.00200
C1376       C  0.43699690  0.95139865  0.31915059    -0.23100
C1377       C  0.41569348  0.94260265  0.33700818    -0.23300
C1378       C  0.42141672  0.91434842  0.34421213    -0.00300
H1379       H  0.43885062  0.97221522  0.30908987     0.13500
H1380       H  0.39786029  0.95561007  0.34405589     0.13500
O1381       O  0.10292749  0.49641567  0.27494233    -0.87700
C1382       C  0.02295524  0.49309251  0.30899828     0.88400
Mg1383     Mg  0.11625271  0.53680052  0.25724070     1.58100
O1384       O  0.03169383  0.95428317  0.24568986    -0.87400
O1385       O  0.09495067  0.95063174  0.26659050    -0.74700
C1386       C  0.50954169  0.57776071  0.18018731     0.93400
O1387       O  0.06602347  0.54492551  0.30710452    -0.74500
O1388       O  0.03579536  0.58371583  0.18308493    -0.82100
Mg1389     Mg  0.08544272  0.50008298  0.31659398     1.58000
C1390       C  0.47662705  0.96019297  0.18090443     0.93300
O1391       O  0.10787025  0.95615419  0.32647054    -0.80300
H1392       H  0.05246043  0.92597021  0.22103904    -0.05700
C1393       C  0.49748138  0.53401257  0.24275574     0.88300
O1394       O  0.10670933  0.51779894  0.21180399    -0.74800
O1395       O  0.04596487  0.98323938  0.30018132    -0.87600
O1396       O  0.48006095  0.94903495  0.20549673    -0.80400
C1397       C  0.47936628  0.92952983  0.29630892     0.93400
C1398       C  0.09658650  0.93168101  0.33007953     0.93300
Mg1399     Mg  0.02070052  0.50748855  0.19068505     1.58000
O1400       O  0.50021898  0.55217147  0.18236690    -0.80300
O1401       O  0.04032885  0.96231899  0.20003247    -0.74600
O1402       O  0.00483205  0.93227678  0.30602624    -0.80400
O1403       O  0.12506676  0.52027074  0.33293877    -0.82100
O1404       O  0.10039485  0.57799415  0.19950435    -0.80400
C1405       C  0.04193890  0.94657449  0.22242195     0.87700
O1406       O  0.06079369  0.52578567  0.20424474    -0.87600
O1407       O  0.50630006  0.51108874  0.23262145    -0.87700
O1408       O  0.01231332  0.55695420  0.24163919    -0.74700
Mg1409     Mg  0.04969953  0.94112071  0.28593888     1.58000
O1410       O  0.47365511  0.93255455  0.26999328    -0.82100
H1411       H  0.13119486  0.97159178  0.25433362    -0.05800
O1412       O  0.07422562  0.55106806  0.26122641    -0.87400
H1413       H  0.05444711  0.58074110  0.28502450    -0.05700
H1414       H  0.08551084  0.50587423  0.17542228    -0.05800
C1415       C  0.06452652  0.55989301  0.28427918     0.87700
C1416       C  0.11062881  0.97305668  0.26481105     0.88300
C1417       C  0.08416369  0.51603893  0.19619978     0.88300
H1418       H  0.47673875  0.53453113  0.25295007    -0.05800
O1419       O  0.49996555  0.49149293  0.29414983    -0.74800
Mg1420     Mg  0.05678643  0.56735119  0.22212926     1.58000
H1421       H  0.02237436  0.50335056  0.32975805    -0.05800
C1422       C  0.12830568  0.54659664  0.32757237     0.93300
O1423       O  0.12746526  0.58019905  0.23766474    -0.82100
C1424       C  0.12500042  0.58158595  0.21067998     0.93400
O1425       O  0.06958142  0.92957522  0.32910865    -0.82100
Mg1426     Mg  0.49003625  0.97181476  0.24942260     1.58200
O1427       O  0.12546383  0.55656586  0.30226320    -0.80400
O1428       O  0.47771908  0.98721030  0.17867720    -0.82100
N1429       N  0.11371163  0.90623197  0.32624461    -0.02800
C1430       C  0.10615464  0.88470262  0.30811056    -0.00200
C1431       C  0.12782919  0.86477611  0.30597365    -0.23100
C1432       C  0.14935933  0.87376530  0.32391277    -0.23300
C1433       C  0.14037450  0.89914778  0.33642389    -0.00300
H1434       H  0.12751636  0.84515844  0.29359172     0.13500
H1435       H  0.16913043  0.86234236  0.32810748     0.13500
N1436       N  0.15030168  0.57814756  0.19333671    -0.02800
C1437       C  0.17225995  0.56047607  0.20086263    -0.00200
C1438       C  0.19198584  0.55836172  0.17914238    -0.23100
C1439       C  0.18248057  0.57582768  0.15756634    -0.23300
C1440       C  0.15697809  0.58808796  0.16653894    -0.00300
H1441       H  0.21176087  0.54622661  0.17941047     0.13500
H1442       H  0.19363211  0.57984091  0.13769462     0.13500
N1443       N  0.48037634  0.94287868  0.15549820    -0.02800
C1444       C  0.49793126  0.95064112  0.13370748    -0.00200
C1445       C  0.50043514  0.92890551  0.11390797    -0.23100
C1446       C  0.48330506  0.90704151  0.12319032    -0.23300
C1447       C  0.47087291  0.91591746  0.14859437    -0.00300
H1448       H  0.51257082  0.92935925  0.09421060     0.13500
H1449       H  0.47952361  0.88711271  0.11191514     0.13500
O1450       O  0.30967942  0.80654659  0.99238334    -0.87700
C1451       C  0.29800069  0.73801952  0.44176144     0.88400
Mg1452     Mg  0.34453449  0.80863392  0.02117417     1.58100
O1453       O  0.25020084  0.74294923  0.99853975    -0.87400
O1454       O  0.26251244  0.80833808  0.99338708    -0.74700
C1455       C  0.34799076  0.68077441  0.08040069     0.93400
O1456       O  0.35594701  0.76503646  0.46342865    -0.74500
O1457       O  0.36297128  0.70342490  0.08129951    -0.82100
Mg1458     Mg  0.31974040  0.79577640  0.44926359     1.58000
C1459       C  0.22899708  0.67938596  0.04953126     0.93300
O1460       O  0.28458455  0.82836715  0.43666245    -0.80300
H1461       H  0.22074710  0.76496118  0.02047529    -0.05700
C1462       C  0.31783030  0.69067009  0.00860088     0.88300
O1463       O  0.31474835  0.79478745  0.05788029    -0.74800
O1464       O  0.29052181  0.76091082  0.45307265    -0.87600
O1465       O  0.22826532  0.68719205  0.02339549    -0.80400
C1466       C  0.22607618  0.70943416  0.43158661     0.93400
C1467       C  0.25833960  0.82795340  0.42900363     0.93300
Mg1468     Mg  0.28580618  0.71331644  0.05980174     1.58000
O1469       O  0.32153144  0.68192274  0.07344911    -0.80300
O1470       O  0.24920687  0.74357730  0.04569189    -0.74600
O1471       O  0.23345519  0.73574871  0.43264626    -0.80400
O1472       O  0.35415723  0.83033648  0.44336868    -0.82100
O1473       O  0.37198618  0.77058177  0.07752144    -0.80400
C1474       C  0.23913240  0.75087915  0.02131888     0.87700
O1475       O  0.31495116  0.74764814  0.05668987    -0.87600
O1476       O  0.29543532  0.70252793  0.01657407    -0.87700
O1477       O  0.34254829  0.69986742  0.01585043    -0.74700
Mg1478     Mg  0.24754116  0.77166308  0.46368514     1.58000
O1479       O  0.22443513  0.69475720  0.45444791    -0.82100
H1480       H  0.28835603  0.83665331  0.01415241    -0.05800
O1481       O  0.35441704  0.76520852  0.01062797    -0.85800
H1482       H  0.38345162  0.74257686  0.48876786    -0.05700
H1483       H  0.29379474  0.76980773  0.08658043    -0.05800
C1484       C  0.36550968  0.75721603  0.48785821     0.87700
C1485       C  0.28711347  0.81810125  0.00032418     0.88300
C1486       C  0.30750555  0.77050453  0.06799637     0.88300
H1487       H  0.31633451  0.67235997  0.99447873    -0.05800
O1488       O  0.29013151  0.71367374  0.45135519    -0.74800
Mg1489     Mg  0.35775699  0.73627255  0.04575660     1.58000
H1490       H  0.31217680  0.73873020  0.42353432    -0.05800
C1491       C  0.37674905  0.82977024  0.45872709     0.93300
O1492       O  0.37955667  0.81181328  0.05500114    -0.82100
C1493       C  0.37990298  0.79660708  0.07767810     0.93400
O1494       O  0.24394311  0.80479512  0.42832207    -0.82100
Mg1495     Mg  0.26001433  0.69967697  0.98792496     1.58200
O1496       O  0.37558034  0.82253844  0.98513709    -0.80400
O1497       O  0.25231470  0.67844424  0.06376492    -0.82100
N1498       N  0.22668393  0.69502832  0.40412384    -0.02800
C1499       C  0.24326744  0.70369298  0.38187376    -0.00200
C1500       C  0.24283800  0.68397225  0.35993899    -0.23100
C1501       C  0.22510049  0.66234325  0.36847444    -0.23300
C1502       C  0.21525512  0.66939160  0.39554320    -0.00300
H1503       H  0.25364470  0.68558179  0.33953735     0.13500
H1504       H  0.21936710  0.64375654  0.35579858     0.13500
N1505       N  0.36219431  0.65328357  0.08009064    -0.02800
C1506       C  0.35345238  0.63095171  0.06360222    -0.00200
C1507       C  0.37321123  0.60903881  0.06404360    -0.23100
C1508       C  0.39491696  0.61774846  0.08181730    -0.23300
C1509       C  0.38783310  0.64488470  0.09160631    -0.00300
H1510       H  0.37160348  0.58858387  0.05321121     0.13500
H1511       H  0.41357753  0.60517730  0.08758075     0.13500
N1512       N  0.40462598  0.83149487  0.44536344    -0.02800
C1513       C  0.42756792  0.81611631  0.45456116    -0.00200
C1514       C  0.45053717  0.81894755  0.43645659    -0.23100
C1515       C  0.44186441  0.83686848  0.41505217    -0.23300
C1516       C  0.41368820  0.84436654  0.42066080    -0.00300
H1517       H  0.47128393  0.80873741  0.43847107     0.13500
H1518       H  0.45493042  0.84380227  0.39725196     0.13500
O1519       O  0.02532471  0.70427532  0.06089259    -0.87700
C1520       C  0.05954433  0.78400252  0.06380806     0.88400
Mg1521     Mg  0.00732102  0.69110934  0.02064270     1.58100
O1522       O  0.99623448  0.77578908  0.10232322    -0.87400
O1523       O  0.01669117  0.71232220  0.10654825    -0.74700
C1524       C  0.42873406  0.79660294  0.47900168     0.93400
O1525       O  0.05706427  0.74146768  0.01242605    -0.74500
O1526       O  0.43197225  0.77027779  0.47363056    -0.82100
Mg1527     Mg  0.06698522  0.72179960  0.05715929     1.58000
C1528       C  0.43202824  0.83158397  0.09589408     0.93300
O1529       O  0.07695313  0.69903237  0.10109182    -0.80300
H1530       H  0.47151917  0.75588067  0.13114842    -0.05700
C1531       C  0.99250304  0.80988737  0.02228929     0.88300
O1532       O  0.46206922  0.70062893  0.03998439    -0.74800
O1533       O  0.05072559  0.76108152  0.07394849    -0.87600
O1534       O  0.45663658  0.82799759  0.10706582    -0.80400
C1535       C  0.04749408  0.82776239  0.12637037     0.93400
C1536       C  0.08038920  0.71019661  0.12568101     0.93300
Mg1537     Mg  0.44077400  0.78679933  0.04932968     1.58000
O1538       O  0.43156331  0.80656082  0.00430563    -0.80300
O1539       O  0.45031887  0.76780074  0.09476641    -0.74600
O1540       O  0.05681286  0.80217165  0.12419293    -0.80400
O1541       O  0.08335906  0.68252832  0.03660252    -0.82100
O1542       O  0.44915321  0.70615840  0.48010086    -0.80400
C1543       C  0.47286506  0.76604322  0.11037004     0.87700
O1544       O  0.45409880  0.74641378  0.03162875    -0.87600
O1545       O  0.48280068  0.80106702  0.04534230    -0.87700
O1546       O  0.99101391  0.79491837  0.49947323    -0.74700
Mg1547     Mg  0.03632511  0.75749193  0.11588591     1.58000
O1548       O  0.02124086  0.83372140  0.12347551    -0.82100
H1549       H  0.00455326  0.67597098  0.08554895    -0.05800
O1550       O  0.01106102  0.73322750  0.50639848    -0.87400
H1551       H  0.03465705  0.75332815  0.47681989    -0.05700
H1552       H  0.42582570  0.72159482  0.05223520    -0.05800
C1553       C  0.03407294  0.74307298  0.49758058     0.87700
C1554       C  0.01507819  0.69657348  0.08416182     0.88300
C1555       C  0.44639353  0.72305608  0.04176024     0.88300
H1556       H  0.00258291  0.83073497  0.02154204    -0.05800
O1557       O  0.04471426  0.80694607  0.06492231    -0.74800
Mg1558     Mg  0.47158852  0.75008057  0.48998082     1.58000
H1559       H  0.08028514  0.78451699  0.05361066    -0.05800
C1560       C  0.07764847  0.67950456  0.51027676     0.93300
O1561       O  0.48743684  0.67957088  0.47746675    -0.82100
C1562       C  0.46043228  0.68168268  0.47649355     0.93400
O1563       O  0.07930291  0.73721437  0.12790153    -0.82100
Mg1564     Mg  0.00024345  0.81735207  0.08443604     1.58200
O1565       O  0.05218414  0.68225600  0.50055673    -0.80400
O1566       O  0.42956046  0.83019806  0.06890913    -0.82100
N1567       N  0.40673054  0.82813409  0.11324119    -0.02800
C1568       C  0.38477760  0.81045579  0.10571562    -0.00200
C1569       C  0.36505682  0.80832947  0.12743934    -0.23100
C1570       C  0.37455854  0.82579488  0.14901710    -0.23300
C1571       C  0.40005426  0.83806682  0.14004273    -0.00300
H1572       H  0.34528648  0.79618708  0.12717249     0.13500
H1573       H  0.36340885  0.82979980  0.16889146     0.13500
N1574       N  0.07663839  0.69288974  0.15109103    -0.02800
C1575       C  0.05907922  0.70065448  0.17287757    -0.00200
C1576       C  0.05657958  0.67892310  0.19268236    -0.23100
C1577       C  0.07371608  0.65706005  0.18340649    -0.23300
C1578       C  0.08614686  0.66593233  0.15800095    -0.00300
H1579       H  0.04444234  0.67937899  0.21237851     0.13500
H1580       H  0.07750126  0.63713438  0.19468564     0.13500
N1581       N  0.44330185  0.65623808  0.48032958    -0.02800
C1582       C  0.45085611  0.63470576  0.49846095    -0.00200
C1583       C  0.42917630  0.61478615  0.50060214    -0.23100
C1584       C  0.40764525  0.62378253  0.48266803    -0.23300
C1585       C  0.41663518  0.64916224  0.47015553    -0.00300
H1586       H  0.42948568  0.59516860  0.51298382     0.13500
H1587       H  0.38787033  0.61236554  0.47847682     0.13500
O1588       O  0.30553987  0.56532319  0.99735562    -0.87700
C1589       C  0.23683255  0.61644384  0.00777167     0.88400
Mg1590     Mg  0.30876770  0.53701850  0.46241021     1.58100
O1591       O  0.24163688  0.55934686  0.05566222    -0.87400
O1592       O  0.30687819  0.56450082  0.04450682    -0.74700
C1593       C  0.18086321  0.97793550  0.45687565     0.93400
O1594       O  0.26486601  0.59448559  0.44990448    -0.74500
O1595       O  0.20374794  0.97657859  0.44233675    -0.82100
Mg1596     Mg  0.29477037  0.60843447  0.98691534     1.58000
C1597       C  0.17944895  0.50820062  0.07561342     0.93300
O1598       O  0.32651537  0.62060023  0.02219164    -0.80300
H1599       H  0.26369987  0.53737883  0.08529978    -0.05700
C1600       C  0.19084730  0.54938787  0.48668985     0.88300
O1601       O  0.29482815  0.99987042  0.99177869    -0.74800
O1602       O  0.25948415  0.60469077  0.01542843    -0.87600
O1603       O  0.18680250  0.53439155  0.07640433    -0.80400
C1604       C  0.20715366  0.62564201  0.07978190     0.93400
C1605       C  0.32603452  0.62824692  0.04828922     0.93300
Mg1606     Mg  0.21307788  0.99825049  0.01937510     1.58000
O1607       O  0.18182248  0.98495801  0.98327918    -0.80300
O1608       O  0.24297831  0.01217719  0.05637697    -0.74600
O1609       O  0.23354585  0.62485104  0.07264317    -0.80400
O1610       O  0.33031476  0.61433866  0.45414601    -0.82100
O1611       O  0.27229582  0.98042534  0.43521402    -0.80400
C1612       C  0.24978994  0.53654309  0.06671455     0.87700
O1613       O  0.24771577  0.00133761  0.99091715    -0.87600
O1614       O  0.20247110  0.54151607  0.00936192    -0.87700
O1615       O  0.20026290  0.54197772  0.46218113    -0.74700
Mg1616     Mg  0.26992629  0.59414614  0.05867607     1.58000
O1617       O  0.19244775  0.60277018  0.08046717    -0.82100
H1618       H  0.33544798  0.54362002  0.01931262    -0.05800
O1619       O  0.26554570  0.54730145  0.45153228    -0.87400
H1620       H  0.24356199  0.56901311  0.42164063    -0.05700
H1621       H  0.26951243  0.97115859  0.01235570    -0.05800
C1622       C  0.25762400  0.57001325  0.44010247     0.87700
C1623       C  0.31687118  0.55743672  0.02014397     0.88300
C1624       C  0.27043328  0.98985562  0.99871053     0.88300
H1625       H  0.17250458  0.56349661  0.48775075    -0.05800
O1626       O  0.21234286  0.60694295  0.01516997    -0.74800
Mg1627     Mg  0.23693765  0.51204770  0.44788923     1.58000
H1628       H  0.23788565  0.63496268  0.99389033    -0.05800
C1629       C  0.32963861  0.59964319  0.43127695     0.93300
O1630       O  0.31262109  0.00432376  0.42682950    -0.82100
C1631       C  0.29841229  0.98106672  0.42757991     0.93400
O1632       O  0.30281638  0.62947242  0.06240245    -0.82100
Mg1633     Mg  0.19854079  0.56985662  0.04483819     1.58200
O1634       O  0.32256064  0.57324513  0.43194931    -0.80400
O1635       O  0.17804471  0.99429402  0.05221664    -0.82100
N1636       N  0.33000757  0.61405660  0.40389783    -0.02800
C1637       C  0.31399717  0.60542199  0.38100710    -0.00200
C1638       C  0.31519614  0.62517271  0.35914993    -0.23100
C1639       C  0.33283384  0.64671877  0.36845608    -0.23300
C1640       C  0.34188592  0.63966654  0.39593306    -0.00300
H1641       H  0.30496307  0.62365912  0.33833192     0.13500
H1642       H  0.33892443  0.66533563  0.35606726     0.13500
N1643       N  0.19278950  0.65313512  0.08036828    -0.02800
C1644       C  0.20170227  0.67614880  0.06487533    -0.00200
C1645       C  0.18215787  0.69818525  0.06611609    -0.23100
C1646       C  0.16033747  0.68889398  0.08317205    -0.23300
C1647       C  0.16703399  0.66125629  0.09184584    -0.00300
H1648       H  0.18391806  0.71905760  0.05615336     0.13500
H1649       H  0.14171264  0.70135678  0.08907130     0.13500
N1650       N  0.15343943  0.97850622  0.44226951    -0.02800
C1651       C  0.13090228  0.99477063  0.45099203    -0.00200
C1652       C  0.10918561  0.99453390  0.43088670    -0.23100
C1653       C  0.11816747  0.97722083  0.40903200    -0.23300
C1654       C  0.14528414  0.96742000  0.41629764    -0.00300
H1655       H  0.08863308  0.00517698  0.43236804     0.13500
H1656       H  0.10578493  0.97176509  0.39012322     0.13500
O1657       O  0.30928422  0.75132202  0.31566128    -0.87700
C1658       C  0.29937503  0.82000356  0.36647264     0.88400
Mg1659     Mg  0.34392259  0.74823994  0.28720325     1.58100
O1660       O  0.25145876  0.81530694  0.30922469    -0.87400
O1661       O  0.26217212  0.74985123  0.31480079    -0.74700
C1662       C  0.34984680  0.87562580  0.22679435     0.93400
O1663       O  0.35673320  0.79197763  0.34439266    -0.74500
O1664       O  0.36454660  0.85275015  0.22610283    -0.82100
Mg1665     Mg  0.32006485  0.76204440  0.35868948     1.58000
C1666       C  0.23096207  0.87824987  0.25830236     0.93300
O1667       O  0.28471640  0.73042166  0.37137355    -0.80300
H1668       H  0.22154637  0.79360999  0.28726698    -0.05700
C1669       C  0.32016503  0.86643121  0.29880514     0.88300
O1670       O  0.31401781  0.76216370  0.25020173    -0.74800
O1671       O  0.29145301  0.79729150  0.35504443    -0.87600
O1672       O  0.23048486  0.87059617  0.28439785    -0.80400
C1673       C  0.22736787  0.84962868  0.37530391     0.93400
C1674       C  0.25860042  0.73105836  0.37900845     0.93300
Mg1675     Mg  0.28706807  0.84413757  0.24790328     1.58000
O1676       O  0.32345463  0.87484006  0.23393582    -0.80300
O1677       O  0.25011425  0.81449410  0.26207334    -0.74600
O1678       O  0.23444438  0.82323047  0.37463276    -0.80400
O1679       O  0.35325749  0.72658004  0.36424205    -0.82100
O1680       O  0.37018866  0.78437517  0.23017132    -0.80400
C1681       C  0.24012428  0.80742571  0.28643612     0.87700
O1682       O  0.31535590  0.80933417  0.25091277    -0.87600
O1683       O  0.29751354  0.85467687  0.29115132    -0.87700
O1684       O  0.34465416  0.85693153  0.29140282    -0.74700
Mg1685     Mg  0.24823153  0.78700540  0.34416951     1.58000
O1686       O  0.22668447  0.86432106  0.35243316    -0.82100
H1687       H  0.28749006  0.72114020  0.29422422    -0.05800
O1688       O  0.35452082  0.79150657  0.29721344    -0.87400
H1689       H  0.38448487  0.81349824  0.31881819    -0.05700
H1690       H  0.29329045  0.78736239  0.22128003    -0.05800
C1691       C  0.36614471  0.79938664  0.31988249     0.87700
C1692       C  0.28656774  0.73983775  0.30786891     0.88300
C1693       C  0.30720229  0.78652885  0.23986353     0.88300
H1694       H  0.31911241  0.88495009  0.31268636    -0.05800
O1695       O  0.29213300  0.84447509  0.35666962    -0.74800
Mg1696     Mg  0.35845271  0.81984247  0.26173519     1.58000
H1697       H  0.31343884  0.81900417  0.38493351    -0.05800
C1698       C  0.37614218  0.72794252  0.34970418     0.93300
O1699       O  0.37895807  0.74428664  0.25436835    -0.82100
C1700       C  0.37754669  0.75818575  0.23096824     0.93400
O1701       O  0.24438373  0.75431127  0.37975188    -0.82100
Mg1702     Mg  0.26223009  0.85841773  0.31966847     1.58200
O1703       O  0.37518459  0.73495767  0.32329605    -0.80400
O1704       O  0.25417720  0.87946820  0.24418302    -0.82100
N1705       N  0.36421920  0.90311486  0.22621571    -0.02800
C1706       C  0.35531148  0.92612721  0.24171460    -0.00200
C1707       C  0.37486231  0.94815779  0.24048329    -0.23100
C1708       C  0.39668204  0.93886481  0.22342761    -0.23300
C1709       C  0.38997921  0.91123170  0.21474398    -0.00300
H1710       H  0.37310738  0.96902756  0.25045258     0.13500
H1711       H  0.41531126  0.95132366  0.21753582     0.13500
N1712       N  0.22701163  0.86404648  0.40268052    -0.02800
C1713       C  0.24303417  0.85541822  0.42556576    -0.00200
C1714       C  0.24184354  0.87517528  0.44741818    -0.23100
C1715       C  0.22419888  0.89671770  0.43811482    -0.23300
C1716       C  0.21513421  0.88965734  0.41064401    -0.00300
H1717       H  0.25208616  0.87366793  0.46823187     0.13500
H1718       H  0.21811194  0.91533741  0.45050191     0.13500
N1719       N  0.40356453  0.72852375  0.36431193    -0.02800
C1720       C  0.42609716  0.74479464  0.35559021    -0.00200
C1721       C  0.44781057  0.74456698  0.37569953    -0.23100
C1722       C  0.43883168  0.72725301  0.39755487    -0.23300
C1723       C  0.41171964  0.71744247  0.39028616    -0.00300
H1724       H  0.46835961  0.75521628  0.37422012     0.13500
H1725       H  0.45121335  0.72180340  0.41646625     0.13500
O1726       O  0.24207806  0.49765241  0.24988854    -0.87700
C1727       C  0.19152615  0.50722711  0.31871701     0.88400
Mg1728     Mg  0.27121528  0.96331225  0.24677993     1.58100
O1729       O  0.24735030  0.55654978  0.31419290    -0.87400
O1730       O  0.24228458  0.54479193  0.24869758    -0.74700
C1731       C  0.33094101  0.95943580  0.37500662     0.93400
O1732       O  0.21446883  0.94987656  0.29072478    -0.74500
O1733       O  0.33257538  0.94475232  0.35214857    -0.82100
Mg1734     Mg  0.19926992  0.48628460  0.26081677     1.58000
C1735       C  0.29869250  0.57795805  0.37757146     0.93300
O1736       O  0.18504967  0.52059788  0.22905181    -0.80300
H1737       H  0.26867690  0.58665042  0.29241973    -0.05700
C1738       C  0.25902340  0.98803171  0.36482508     0.88300
O1739       O  0.30782063  0.49356578  0.26088854    -0.74800
O1740       O  0.20261153  0.51521704  0.29594701    -0.87600
O1741       O  0.27244762  0.57837275  0.36991377    -0.80400
C1742       C  0.18028608  0.57977620  0.34784825     0.93400
C1743       C  0.17713299  0.54662335  0.22889793     0.93300
Mg1744     Mg  0.30948930  0.52166224  0.34289781     1.58000
O1745       O  0.32356817  0.48575182  0.37394256    -0.80300
O1746       O  0.29451776  0.55833267  0.31318521    -0.74600
O1747       O  0.18144971  0.57254420  0.32143923    -0.80400
O1748       O  0.19405448  0.95344139  0.22527142    -0.82100
O1749       O  0.32874819  0.93717769  0.28319215    -0.80400
C1750       C  0.26991764  0.56809973  0.30624975     0.87700
O1751       O  0.30682327  0.49294208  0.30804079    -0.87600
O1752       O  0.26650733  0.51091870  0.35351022    -0.87700
O1753       O  0.26688554  0.96368260  0.35523396    -0.74700
Mg1754     Mg  0.21249684  0.55864137  0.28540284     1.58000
O1755       O  0.20287904  0.58034897  0.36320441    -0.82100
H1756       H  0.26324020  0.51980930  0.22000050    -0.05800
O1757       O  0.26158208  0.95252920  0.29000767    -0.87400
H1758       H  0.24067566  0.92236533  0.31210086    -0.05700
H1759       H  0.33628301  0.51494512  0.28610549    -0.05800
C1760       C  0.23918444  0.94067552  0.29797836     0.87700
C1761       C  0.24952726  0.52050788  0.23858292     0.88300
C1762       C  0.31789516  0.50086718  0.28526175     0.88300
H1763       H  0.24484791  0.98874901  0.38305281    -0.05800
O1764       O  0.20108682  0.51504798  0.34314719    -0.74800
Mg1765     Mg  0.29700039  0.94967321  0.31865976     1.58000
H1766       H  0.17358529  0.49258722  0.31780648    -0.05800
C1767       C  0.20902450  0.93078414  0.22618059     0.93300
O1768       O  0.30469940  0.92843205  0.24282165    -0.82100
C1769       C  0.32801630  0.92936969  0.25705679     0.93400
O1770       O  0.17747561  0.56182619  0.25157714    -0.82100
Mg1771     Mg  0.23729241  0.54578610  0.35731386     1.58200
O1772       O  0.23548333  0.93192350  0.23313566    -0.80400
O1773       O  0.31308901  0.55479946  0.37825531    -0.82100
N1774       N  0.19480769  0.90330044  0.22650274    -0.02800
C1775       C  0.20354030  0.88096970  0.24299826    -0.00200
C1776       C  0.18376794  0.85906940  0.24257085    -0.23100
C1777       C  0.16206433  0.86778413  0.22479739    -0.23300
C1778       C  0.16916256  0.89491099  0.21499391    -0.00300
H1779       H  0.18536592  0.83861795  0.25341093     0.13500
H1780       H  0.14339612  0.85522117  0.21904250     0.13500
N1781       N  0.15240996  0.58148930  0.36121524    -0.02800
C1782       C  0.12947127  0.56610597  0.35201707    -0.00200
C1783       C  0.10650433  0.56892586  0.37012653    -0.23100
C1784       C  0.11517467  0.58684400  0.39153410    -0.23300
C1785       C  0.14334736  0.59435200  0.38592295    -0.00300
H1786       H  0.08576075  0.55870988  0.36811320     0.13500
H1787       H  0.10210934  0.59376884  0.40933845     0.13500
N1788       N  0.33033846  0.94503765  0.40247304    -0.02800
C1789       C  0.31375538  0.95370488  0.42472272    -0.00200
C1790       C  0.31419542  0.93399104  0.44666376    -0.23100
C1791       C  0.33193824  0.91236390  0.43813154    -0.23300
C1792       C  0.34177566  0.91940639  0.41105854    -0.00300
H1793       H  0.30339177  0.93560384  0.46706685     0.13500
H1794       H  0.33767932  0.89378192  0.45081122     0.13500
C1795       C  0.15400579  0.64899047  0.44177563     0.80900
N1796       N  0.17823131  0.66224013  0.43241050    -0.77400
C1797       C  0.19281089  0.65202394  0.40957103     0.83300
N1798       N  0.18244764  0.62867889  0.39536933    -0.77400
C1799       C  0.15835884  0.61531071  0.40432199     0.83400
N1800       N  0.14412793  0.62579638  0.42746357    -0.79100
C1801       C  0.39866700  0.86532898  0.90226796     0.80900
N1802       N  0.37458064  0.87869832  0.91122813    -0.77400
C1803       C  0.36421887  0.90204890  0.89703374     0.83300
N1804       N  0.37879787  0.91226988  0.87419658    -0.77400
C1805       C  0.40302104  0.89902054  0.86482547     0.83400
N1806       N  0.41289723  0.87582036  0.87912865    -0.79100
C1807       C  0.15195395  0.90922992  0.69245431     0.80900
N1808       N  0.16175506  0.93289496  0.67877138    -0.77400
C1809       C  0.14857917  0.94271270  0.65455596     0.83300
N1810       N  0.12607652  0.92791698  0.64368808    -0.77400
C1811       C  0.11605327  0.90402775  0.65703875     0.83400
N1812       N  0.12921103  0.89474219  0.68120461    -0.79100
C1813       C  0.41379942  0.86132741  0.65710131     0.80900
N1814       N  0.43785161  0.87495277  0.64817032    -0.77400
C1815       C  0.44766023  0.89886436  0.66204609     0.83300
N1816       N  0.43263496  0.90931079  0.68451415    -0.77400
C1817       C  0.40838315  0.89597817  0.69378872     0.83400
N1818       N  0.39906030  0.87224661  0.67981342    -0.79100
C1819       C  0.10934534  0.64886726  0.64454027     0.80900
N1820       N  0.11916022  0.62495778  0.65841555    -0.77400
C1821       C  0.14321254  0.61133448  0.64947928     0.83300
N1822       N  0.15794500  0.62225414  0.62676392    -0.77400
C1823       C  0.14861609  0.64598362  0.61278981     0.83400
N1824       N  0.12436469  0.65931393  0.62206865    -0.79100
C1825       C  0.44095425  0.65402402  0.64953149     0.80900
N1826       N  0.43092623  0.67791110  0.66288428    -0.77400
C1827       C  0.40841340  0.69269674  0.65202297     0.83300
N1828       N  0.39523418  0.68287166  0.62781299    -0.77400
C1829       C  0.40503883  0.65920895  0.61412889     0.83400
N1830       N  0.42779066  0.64472991  0.62537163    -0.79100
C1831       C  0.39699210  0.69551201  0.90791083     0.80900
N1832       N  0.41011093  0.68593963  0.93229763    -0.77400
C1833       C  0.40006736  0.66260135  0.94638020     0.83300
N1834       N  0.37695667  0.64823831  0.93540893    -0.77400
C1835       C  0.36363659  0.65744550  0.91116788     0.83400
N1836       N  0.37408886  0.68096640  0.89745508    -0.79100
C1837       C  0.15694438  0.91259625  0.86017995     0.80900
N1838       N  0.18004894  0.89822623  0.87115650    -0.77400
C1839       C  0.19336184  0.90742715  0.89540451     0.83300
N1840       N  0.18290787  0.93094719  0.90911814    -0.77400
C1841       C  0.16001024  0.94549792  0.89865727     0.83400
N1842       N  0.14689927  0.93593274  0.87426416    -0.79100
O1843       O  0.50087738  0.56581226  0.56117849    -0.87700
C1844       C  0.06974324  0.61629800  0.55051089     0.88400
Mg1845     Mg  0.49882907  0.53617720  0.59501624     1.58100
O1846       O  0.06423991  0.56034850  0.00137168    -0.87400
O1847       O  0.49880092  0.56540401  0.01407741    -0.74700
C1848       C  0.12695357  0.97671825  0.59759801     0.93400
O1849       O  0.04277179  0.59355849  0.60832656    -0.74500
O1850       O  0.10447927  0.97589300  0.61271349    -0.82100
Mg1851     Mg  0.51215279  0.60863418  0.57240925     1.58000
C1852       C  0.12762623  0.00954200  0.97873632     0.93300
O1853       O  0.47952365  0.62254943  0.53843852    -0.80300
H1854       H  0.04190547  0.53888183  0.97157869    -0.05700
C1855       C  0.11680248  0.54914309  0.56872535     0.88300
O1856       O  0.51273917  0.00016379  0.56434867    -0.74800
O1857       O  0.04672882  0.60521651  0.54289361    -0.87600
O1858       O  0.11986885  0.53571190  0.97867447    -0.80400
C1859       C  0.09748693  0.62745630  0.97737821     0.93400
C1860       C  0.47904239  0.63027087  0.01233493     0.93300
Mg1861     Mg  0.09399870  0.99837009  0.53563269     1.58000
O1862       O  0.12555244  0.98397873  0.57123462    -0.80300
O1863       O  0.06348870  0.01319961  0.99944071    -0.74600
O1864       O  0.07125125  0.62622083  0.98511664    -0.80400
O1865       O  0.47756248  0.61400208  0.60623797    -0.82100
O1866       O  0.03735755  0.97941367  0.62148778    -0.80400
C1867       C  0.05615556  0.53774042  0.98988780     0.87700
O1868       O  0.05989281  0.00105640  0.56489809    -0.87600
O1869       O  0.10493954  0.54144445  0.54612241    -0.87700
O1870       O  0.10763246  0.54159870  0.59327464    -0.74700
Mg1871     Mg  0.03538215  0.59514957  0.99966958     1.58000
O1872       O  0.11274855  0.60491933  0.97652322    -0.82100
H1873       H  0.47035855  0.54470105  0.53951843    -0.05800
O1874       O  0.04229964  0.54644428  0.60544281    -0.87400
H1875       H  0.06483948  0.56745271  0.63539315    -0.05700
H1876       H  0.03756607  0.97172773  0.54286148    -0.05800
C1877       C  0.05032881  0.56887920  0.61730529     0.87700
C1878       C  0.48905370  0.55834217  0.53851319     0.88300
C1879       C  0.03696937  0.99003385  0.55704503     0.88300
H1880       H  0.13509030  0.56331200  0.56757486    -0.05800
O1881       O  0.09396574  0.60679961  0.54224331    -0.74800
Mg1882     Mg  0.07141969  0.01139975  0.60795407     1.58000
H1883       H  0.06925068  0.63420689  0.56519867    -0.05800
C1884       C  0.47724647  0.59810497  0.62829807     0.93300
O1885       O  0.49575216  0.00135098  0.62887946    -0.82100
C1886       C  0.51130523  0.97888424  0.62911123     0.93400
O1887       O  0.50158566  0.63010688  0.99703927    -0.82100
Mg1888     Mg  0.10766062  0.57069244  0.01129689     1.58200
O1889       O  0.48438812  0.57165027  0.62672814    -0.80400
O1890       O  0.12854198  0.99482741  0.00170818    -0.82100
N1891       N  0.11089461  0.65535622  0.97532475    -0.02800
C1892       C  0.10185368  0.67838477  0.99053727    -0.00200
C1893       C  0.12003315  0.70136529  0.98746212    -0.23100
C1894       C  0.14133753  0.69257114  0.96960484    -0.23300
C1895       C  0.13560920  0.66432124  0.96238892    -0.00300
H1896       H  0.11818165  0.72217838  0.99752971     0.13500
H1897       H  0.15917419  0.70557772  0.96256441     0.13500
N1898       N  0.47447116  0.61095498  0.65631310    -0.02800
C1899       C  0.48938469  0.60163678  0.67944388    -0.00200
C1900       C  0.48569221  0.61935275  0.70268703    -0.23100
C1901       C  0.46771446  0.64070744  0.69383728    -0.23300
C1902       C  0.46114734  0.63542763  0.66531350    -0.00300
H1903       H  0.49550258  0.61723847  0.72365193     0.13500
H1904       H  0.46028729  0.65833795  0.70692133     0.13500
N1905       N  0.15466115  0.97641538  0.61160832    -0.02800
C1906       C  0.17712445  0.99255822  0.60278969    -0.00200
C1907       C  0.19939420  0.99156025  0.62224659    -0.23100
C1908       C  0.19072547  0.97387394  0.64391655    -0.23300
C1909       C  0.16327025  0.96469388  0.63711345    -0.00300
H1910       H  0.22000518  0.00204242  0.62050021     0.13500
H1911       H  0.20348633  0.96780460  0.66238213     0.13500
O1912       O  0.99275693  0.81037788  0.80519954    -0.87700
C1913       C  0.44018927  0.79916567  0.73783640     0.88400
Mg1914     Mg  0.02162162  0.84517437  0.80689778     1.58100
O1915       O  0.99709605  0.75107488  0.74166983    -0.87400
O1916       O  0.99350033  0.76322907  0.80713555    -0.74700
C1917       C  0.07975705  0.84810895  0.67826648     0.93400
O1918       O  0.46303422  0.85682682  0.76432334    -0.74500
O1919       O  0.07943407  0.86401174  0.70032250    -0.82100
Mg1920     Mg  0.44933611  0.82072498  0.79527278     1.58000
C1921       C  0.04568890  0.72888798  0.67746009     0.93300
O1922       O  0.43712127  0.78574530  0.82789767    -0.80300
H1923       H  0.01941968  0.72174514  0.76370860    -0.05700
C1924       C  0.00666742  0.81889282  0.68925857     0.88300
O1925       O  0.05819892  0.81542416  0.79248949    -0.74800
O1926       O  0.45205020  0.79146929  0.76044142    -0.87600
O1927       O  0.01963615  0.72941893  0.68508345    -0.80400
C1928       C  0.43003718  0.72672921  0.70896974     0.93400
C1929       C  0.42936079  0.75957532  0.82783674     0.93300
Mg1930     Mg  0.05816445  0.78618536  0.71154960     1.58000
O1931       O  0.07261350  0.82165510  0.67983982    -0.80300
O1932       O  0.04424934  0.75017577  0.74221848    -0.74600
O1933       O  0.43143916  0.73399604  0.73533162    -0.80400
O1934       O  0.44425272  0.85495663  0.83004547    -0.82100
O1935       O  0.07748053  0.87255999  0.76812544    -0.80400
C1936       C  0.02001822  0.74005002  0.74952364     0.87700
O1937       O  0.05611791  0.81582327  0.74538553    -0.87600
O1938       O  0.01469522  0.79645663  0.70112005    -0.87700
O1939       O  0.01422517  0.84357143  0.69823883    -0.74700
Mg1940     Mg  0.46298906  0.74839439  0.77093478     1.58000
O1941       O  0.45250964  0.72590809  0.69385124    -0.82100
H1942       H  0.01508522  0.78891055  0.83499673    -0.05800
O1943       O  0.01027097  0.85523658  0.76367278    -0.87400
H1944       H  0.48775276  0.88423370  0.74137197    -0.05700
H1945       H  0.08663468  0.79470830  0.76704535    -0.05800
C1946       C  0.48725797  0.86632275  0.75605727     0.87700
C1947       C  0.00083647  0.78776981  0.81668637     0.88300
C1948       C  0.06794079  0.80835198  0.76805065     0.88300
H1949       H  0.99215665  0.81746822  0.67117044    -0.05800
O1950       O  0.44936038  0.79161677  0.71328841    -0.74800
Mg1951     Mg  0.04484659  0.85864718  0.73415506     1.58000
H1952       H  0.42190135  0.81333555  0.73898368    -0.05800
C1953       C  0.45952298  0.87748808  0.82920070     0.93300
O1954       O  0.05542547  0.88012854  0.80952227    -0.82100
C1955       C  0.07796537  0.88029190  0.79422118     0.93400
O1956       O  0.42844485  0.74486058  0.80486461    -0.82100
Mg1957     Mg  0.98557263  0.76141263  0.69861140     1.58200
O1958       O  0.98575781  0.87624716  0.82145989    -0.80400
O1959       O  0.06123997  0.75135585  0.67768663    -0.82100
N1960       N  0.40232726  0.72640898  0.69496441    -0.02800
C1961       C  0.37985813  0.74254367  0.70378365    -0.00200
C1962       C  0.35758274  0.74152793  0.68433451    -0.23100
C1963       C  0.36625439  0.72383875  0.66266801    -0.23300
C1964       C  0.39371678  0.71467470  0.66946567    -0.00300
H1965       H  0.33696679  0.75200000  0.68608397     0.13500
H1966       H  0.35349096  0.71775695  0.64420846     0.13500
N1967       N  0.08254906  0.86095013  0.65024936    -0.02800
C1968       C  0.06765206  0.85162186  0.62711223    -0.00200
C1969       C  0.07136126  0.86932677  0.60386384    -0.23100
C1970       C  0.08933133  0.89068607  0.61271761    -0.23300
C1971       C  0.09587714  0.88541986  0.64124869    -0.00300
H1972       H  0.06156459  0.86720402  0.58289367     0.13500
H1973       H  0.09676590  0.90831172  0.59963186     0.13500
N1974       N  0.44612779  0.90539235  0.83127595    -0.02800
C1975       C  0.45517441  0.92842552  0.81607470    -0.00200
C1976       C  0.43701045  0.95141518  0.81917501    -0.23100
C1977       C  0.41570874  0.94262075  0.83703546    -0.23300
C1978       C  0.42142337  0.91436180  0.84422762    -0.00300
H1979       H  0.43886893  0.97223411  0.80912069     0.13500
H1980       H  0.39788195  0.95563199  0.84409201     0.13500
O1981       O  0.10292134  0.49642022  0.77493862    -0.87700
C1982       C  0.02294932  0.49309864  0.80898986     0.88400
Mg1983     Mg  0.11624294  0.53680433  0.75723581     1.58100
O1984       O  0.03168716  0.95428341  0.74568523    -0.87400
O1985       O  0.09494507  0.95063595  0.76658565    -0.74700
C1986       C  0.50953564  0.57775535  0.68017918     0.93400
O1987       O  0.06601152  0.54492989  0.80709648    -0.74500
O1988       O  0.03578943  0.58371069  0.68307358    -0.82100
Mg1989     Mg  0.08543420  0.50008934  0.81658905     1.58000
C1990       C  0.47662229  0.96019023  0.68089755     0.93300
O1991       O  0.10786386  0.95616258  0.82646766    -0.80300
H1992       H  0.05245297  0.92596746  0.72103691    -0.05700
C1993       C  0.49747213  0.53401071  0.74274354     0.88300
O1994       O  0.10670353  0.51779810  0.71179987    -0.74800
O1995       O  0.04595815  0.98324410  0.80017443    -0.87600
O1996       O  0.48005392  0.94903258  0.70549068    -0.80400
C1997       C  0.47936378  0.92953707  0.79631290     0.93400
C1998       C  0.09658148  0.93168861  0.83007544     0.93300
Mg1999     Mg  0.02069561  0.50748412  0.69067685     1.58000
O2000       O  0.50021387  0.55216584  0.68235770    -0.80300
O2001       O  0.04032253  0.96231488  0.70002709    -0.74600
O2002       O  0.00483132  0.93228345  0.80602444    -0.80400
O2003       O  0.12505461  0.52028162  0.83293587    -0.82100
O2004       O  0.10038659  0.57798958  0.69949656    -0.80400
C2005       C  0.04193184  0.94657236  0.72241797     0.87700
O2006       O  0.06078779  0.52578190  0.70423749    -0.87600
O2007       O  0.50629271  0.51108662  0.73261164    -0.87700
O2008       O  0.01230327  0.55695251  0.74162700    -0.74700
Mg2009     Mg  0.04969489  0.94112477  0.78593472     1.58000
O2010       O  0.47364665  0.93255929  0.76999789    -0.82100
H2011       H  0.13118894  0.97159693  0.75432976    -0.05800
O2012       O  0.07421426  0.55106755  0.76121803    -0.87400
H2013       H  0.05443309  0.58074213  0.78501203    -0.05700
H2014       H  0.08550743  0.50586884  0.67541835    -0.05800
C2015       C  0.06451368  0.55989447  0.78426936     0.87700
C2016       C  0.11062279  0.97306119  0.76480724     0.88300
C2017       C  0.08415869  0.51603531  0.69619466     0.88300
H2018       H  0.47672854  0.53452932  0.75293580    -0.05800
O2019       O  0.49995988  0.49149854  0.79414118    -0.74800
Mg2020     Mg  0.05677776  0.56734841  0.72211941     1.58000
H2021       H  0.02236835  0.50335916  0.82974851    -0.05800
C2022       C  0.12828925  0.54660767  0.82756748     0.93300
O2023       O  0.12745305  0.58020192  0.73765890    -0.82100
C2024       C  0.12499090  0.58158382  0.71067383     0.93400
O2025       O  0.06957667  0.92958149  0.82910443    -0.82100
Mg2026     Mg  0.49002904  0.97181540  0.74941691     1.58200
O2027       O  0.12544807  0.55657429  0.80225722    -0.80400
O2028       O  0.47771473  0.98720731  0.67866936    -0.82100
N2029       N  0.11370778  0.90624078  0.82623833    -0.02800
C2030       C  0.10615129  0.88471131  0.80810400    -0.00200
C2031       C  0.12782794  0.86478740  0.80596380    -0.23100
C2032       C  0.14935857  0.87377787  0.82390157    -0.23300
C2033       C  0.14037192  0.89915841  0.83641540    -0.00300
H2034       H  0.12751621  0.84517019  0.79358099     0.13500
H2035       H  0.16913086  0.86235656  0.82809443     0.13500
N2036       N  0.15029330  0.57814121  0.69333353    -0.02800
C2037       C  0.17225039  0.56047026  0.70086356    -0.00200
C2038       C  0.19197745  0.55835230  0.67914451    -0.23100
C2039       C  0.18247390  0.57581583  0.65756541    -0.23300
C2040       C  0.15697135  0.58807783  0.66653507    -0.00300
H2041       H  0.21175212  0.54621653  0.67941521     0.13500
H2042       H  0.19362633  0.57982623  0.63769371     0.13500
N2043       N  0.48037071  0.94287560  0.65549150    -0.02800
C2044       C  0.49792324  0.95063753  0.63369870    -0.00200
C2045       C  0.50042452  0.92890168  0.61389898    -0.23100
C2046       C  0.48329518  0.90703810  0.62318369    -0.23300
C2047       C  0.47086622  0.91591480  0.64858910    -0.00300
H2048       H  0.51255734  0.92935536  0.59419996     0.13500
H2049       H  0.47951172  0.88710919  0.61190896     0.13500
O2050       O  0.30968774  0.80654404  0.49238546    -0.87700
C2051       C  0.29799711  0.73802509  0.94175371     0.88400
Mg2052     Mg  0.34454308  0.80863158  0.52117474     1.58100
O2053       O  0.25020384  0.74294840  0.49854616    -0.87400
O2054       O  0.26252066  0.80833512  0.49339296    -0.74700
C2055       C  0.34798870  0.68077345  0.58040078     0.93400
O2056       O  0.35594070  0.76504277  0.96342786    -0.74500
O2057       O  0.36296980  0.70342344  0.58130075    -0.82100
Mg2058     Mg  0.31973440  0.79578243  0.94926169     1.58000
C2059       C  0.22899559  0.67939055  0.54954028     0.93300
O2060       O  0.28457773  0.82837131  0.93665832    -0.80300
H2061       H  0.22075090  0.76496362  0.52047934    -0.05700
C2062       C  0.31782959  0.69066867  0.50860506     0.88300
O2063       O  0.31475824  0.79478760  0.55788263    -0.74800
O2064       O  0.29051706  0.76091554  0.95306569    -0.87600
O2065       O  0.22826457  0.68719345  0.52340352    -0.80400
C2066       C  0.22607277  0.70943510  0.93157979     0.93400
C2067       C  0.25833333  0.82795654  0.92899757     0.93300
Mg2068     Mg  0.28580764  0.71331948  0.55980721     1.58000
O2069       O  0.32152904  0.68192290  0.57345195    -0.80300
O2070       O  0.24921038  0.74358188  0.54569805    -0.74600
O2071       O  0.23345065  0.73575005  0.93263935    -0.80400
O2072       O  0.35414858  0.83034566  0.94337329    -0.82100
O2073       O  0.37199133  0.77057886  0.57752159    -0.80400
C2074       C  0.23913562  0.75088092  0.52132443     0.87700
O2075       O  0.31495563  0.74764859  0.55669041    -0.87600
O2076       O  0.29543499  0.70252591  0.51658031    -0.87700
O2077       O  0.34254816  0.69986624  0.51585215    -0.74700
Mg2078     Mg  0.24753585  0.77166501  0.96367865     1.58000
O2079       O  0.22443511  0.69475738  0.95444074    -0.82100
H2080       H  0.28836572  0.83665012  0.51415660    -0.05800
O2081       O  0.35442472  0.76520578  0.51062862    -0.85800
H2082       H  0.38344374  0.74258061  0.98876619    -0.05700
H2083       H  0.29380330  0.76980927  0.58658307    -0.05800
C2084       C  0.36550230  0.75722009  0.98785719     0.87700
C2085       C  0.28712223  0.81809836  0.50032812     0.88300
C2086       C  0.30751328  0.77050525  0.56799827     0.88300
H2087       H  0.31633284  0.67235878  0.49448240    -0.05800
O2088       O  0.29013031  0.71367853  0.95134738    -0.74800
Mg2089     Mg  0.35776047  0.73627012  0.54575748     1.58000
H2090       H  0.31217211  0.73873722  0.92352543    -0.05800
C2091       C  0.37674216  0.82977341  0.95872881     0.93300
O2092       O  0.37956652  0.81180929  0.55500069    -0.82100
C2093       C  0.37990939  0.79660375  0.57767828     0.93400
O2094       O  0.24393738  0.80479785  0.92831563    -0.82100
Mg2095     Mg  0.26001417  0.69967541  0.48793243     1.58200
O2096       O  0.37558578  0.82253744  0.48513595    -0.80400
O2097       O  0.25231247  0.67845148  0.56377540    -0.82100
N2098       N  0.22667635  0.69503008  0.90411647    -0.02800
C2099       C  0.24325718  0.70369501  0.88186452    -0.00200
C2100       C  0.24282352  0.68397558  0.85992858    -0.23100
C2101       C  0.22508618  0.66234697  0.86846540    -0.23300
C2102       C  0.21524524  0.66939413  0.89553616    -0.00300
H2103       H  0.25362755  0.68558547  0.83952553     0.13500
H2104       H  0.21935058  0.64376088  0.85578967     0.13500
N2105       N  0.36219184  0.65328288  0.58008513    -0.02800
C2106       C  0.35345021  0.63095378  0.56359280    -0.00200
C2107       C  0.37321014  0.60904172  0.56403021    -0.23100
C2108       C  0.39491560  0.61774897  0.58180572    -0.23300
C2109       C  0.38783059  0.64488310  0.59159940    -0.00300
H2110       H  0.37160319  0.58858852  0.55319437     0.13500
H2111       H  0.41357632  0.60517772  0.58756731     0.13500
N2112       N  0.40461740  0.83149019  0.94536077    -0.02800
C2113       C  0.42755654  0.81610330  0.95455244    -0.00200
C2114       C  0.45052183  0.81892689  0.93644160    -0.23100
C2115       C  0.44185017  0.83685217  0.91504053    -0.23300
C2116       C  0.41367827  0.84436076  0.92065684    -0.00300
H2117       H  0.47126604  0.80871035  0.93845105     0.13500
H2118       H  0.45491467  0.84378242  0.89723752     0.13500
O2119       O  0.02532136  0.70426851  0.56089059    -0.87700
C2120       C  0.05954412  0.78399252  0.56381619     0.88400
Mg2121     Mg  0.00731652  0.69110960  0.52063941     1.58100
O2122       O  0.99623187  0.77577828  0.60232757    -0.87400
O2123       O  0.01668587  0.71230982  0.60654697    -0.74700
C2124       C  0.42872558  0.79659243  0.97899541     0.93400
O2125       O  0.05706186  0.74146787  0.51242957    -0.74500
O2126       O  0.43196973  0.77026748  0.97362670    -0.82100
Mg2127     Mg  0.06698214  0.72179284  0.55715970     1.58000
C2128       C  0.43203135  0.83158076  0.59590123     0.93300
O2129       O  0.07694841  0.69902067  0.60109116    -0.80300
H2130       H  0.47151416  0.75586871  0.63115039    -0.05700
C2131       C  0.99250792  0.80988662  0.52229836     0.88300
O2132       O  0.46206537  0.70062990  0.53998287    -0.74800
O2133       O  0.05072292  0.76107135  0.57395367    -0.87600
O2134       O  0.45663801  0.82798961  0.60707513    -0.80400
C2135       C  0.04749590  0.82774551  0.62637693     0.93400
C2136       C  0.08038291  0.71018317  0.62568166     0.93300
Mg2137     Mg  0.44077602  0.78680081  0.54933419     1.58000
O2138       O  0.43157186  0.80656840  0.50431289    -0.80300
O2139       O  0.45031570  0.76779570  0.59476937    -0.74600
O2140       O  0.05681232  0.80215424  0.62419872    -0.80400
O2141       O  0.08335686  0.68252635  0.53659354    -0.82100
O2142       O  0.44915658  0.70615037  0.98010039    -0.80400
C2143       C  0.47286143  0.76603372  0.61037299     0.87700
O2144       O  0.45409737  0.74641587  0.53163029    -0.87600
O2145       O  0.48280397  0.80106389  0.54534986    -0.87700
O2146       O  0.99101013  0.79491585  0.99946627    -0.74700
Mg2147     Mg  0.03632097  0.75747809  0.61588974     1.58000
O2148       O  0.02124257  0.83370608  0.62348738    -0.82100
H2149       H  0.00454860  0.67596125  0.58554255    -0.05800
O2150       O  0.01106351  0.73322577  0.00639653    -0.87400
H2151       H  0.03465892  0.75332263  0.97681491    -0.05700
H2152       H  0.42582309  0.72159699  0.55223525    -0.05800
C2153       C  0.03407516  0.74307047  0.99757700     0.87700
C2154       C  0.01507384  0.69656394  0.58415849     0.88300
C2155       C  0.44639088  0.72305784  0.54176028     0.88300
H2156       H  0.00258969  0.83073309  0.52155420    -0.05800
O2157       O  0.04471596  0.80693699  0.56493210    -0.74800
Mg2158     Mg  0.47158858  0.75007524  0.98997843     1.58000
H2159       H  0.08028586  0.78450632  0.55362006    -0.05800
C2160       C  0.07765351  0.67950120  0.01028603     0.93300
O2161       O  0.48744221  0.67956454  0.97747044    -0.82100
C2162       C  0.46043752  0.68167564  0.97649221     0.93400
O2163       O  0.07929692  0.73720049  0.62790443    -0.82100
Mg2164     Mg  0.00024531  0.81734340  0.58444572     1.58200
O2165       O  0.05219031  0.68225237  0.00056282    -0.80400
O2166       O  0.42956659  0.83019921  0.56891596    -0.82100
N2167       N  0.40673120  0.82813118  0.61324471    -0.02800
C2168       C  0.38477941  0.81045300  0.60571620    -0.00200
C2169       C  0.36505433  0.80832870  0.62743633    -0.23100
C2170       C  0.37455244  0.82579533  0.64901481    -0.23300
C2171       C  0.40005012  0.83806584  0.64004411    -0.00300
H2172       H  0.34528344  0.79618687  0.62716631     0.13500
H2173       H  0.36339924  0.82980233  0.66888673     0.13500
N2174       N  0.07663096  0.69287504  0.65109049    -0.02800
C2175       C  0.05907412  0.70064003  0.67287905    -0.00200
C2176       C  0.05657366  0.67890677  0.69268192    -0.23100
C2177       C  0.07370767  0.65704287  0.68340276    -0.23300
C2178       C  0.08613784  0.66591654  0.65799735    -0.00300
H2179       H  0.04443837  0.67936218  0.71237911     0.13500
H2180       H  0.07749248  0.63711598  0.69468019     0.13500
N2181       N  0.44330756  0.65622898  0.98031771    -0.02800
C2182       C  0.45086073  0.63469269  0.99844528    -0.00200
C2183       C  0.42918419  0.61476865  0.00057531    -0.23100
C2184       C  0.40765566  0.62376716  0.98263948    -0.23300
C2185       C  0.41664350  0.64915251  0.97013642    -0.00300
H2186       H  0.42949386  0.59514741  0.01295164     0.13500
H2187       H  0.38788320  0.61234871  0.97844182     0.13500
O2188       O  0.30553628  0.56531990  0.49735208    -0.87700
C2189       C  0.23682830  0.61644149  0.50776554     0.88400
Mg2190     Mg  0.30876913  0.53702519  0.96241122     1.58100
O2191       O  0.24163581  0.55934725  0.55565923    -0.87400
O2192       O  0.30687761  0.56450365  0.54450304    -0.74700
C2193       C  0.18086374  0.97794292  0.95687060     0.93400
O2194       O  0.26486872  0.59449455  0.94991114    -0.74500
O2195       O  0.20374644  0.97659195  0.94232789    -0.82100
Mg2196     Mg  0.29476667  0.60843056  0.48690843     1.58000
C2197       C  0.17944514  0.50820078  0.57561427     0.93300
O2198       O  0.32651163  0.62060026  0.52218364    -0.80300
H2199       H  0.26369880  0.53738173  0.58529807    -0.05700
C2200       C  0.19084822  0.54939449  0.98669155     0.88300
O2201       O  0.29482668  0.99986569  0.49178034    -0.74800
O2202       O  0.25948039  0.60468938  0.51542216    -0.87600
O2203       O  0.18680072  0.53439117  0.57640477    -0.80400
C2204       C  0.20715091  0.62564146  0.57977876     0.93400
C2205       C  0.32603155  0.62824993  0.54828036     0.93300
Mg2206     Mg  0.21307562  0.99824716  0.51937793     1.58000
O2207       O  0.18181944  0.98495337  0.48328343    -0.80300
O2208       O  0.24297609  0.01217732  0.55637892    -0.74600
O2209       O  0.23354272  0.62485162  0.57263832    -0.80400
O2210       O  0.33031758  0.61434373  0.95415126    -0.82100
O2211       O  0.27229542  0.98043588  0.93521281    -0.80400
C2212       C  0.24978898  0.53654440  0.56671367     0.87700
O2213       O  0.24771454  0.00133153  0.49091997    -0.87600
O2214       O  0.20247011  0.54151208  0.50936121    -0.87700
O2215       O  0.20026403  0.54198769  0.96218198    -0.74700
Mg2216     Mg  0.26992428  0.59414832  0.55867047     1.58000
O2217       O  0.19244534  0.60276951  0.58046305    -0.82100
H2218       H  0.33544728  0.54362121  0.51930976    -0.05800
O2219       O  0.26554706  0.54731039  0.95153601    -0.87400
H2220       H  0.24356202  0.56902458  0.92164706    -0.05700
H2221       H  0.26951240  0.97115487  0.51236092    -0.05800
C2222       C  0.25762568  0.57002312  0.94010800     0.87700
C2223       C  0.31686946  0.55743695  0.52014057     0.88300
C2224       C  0.27043238  0.98985082  0.49871383     0.88300
H2225       H  0.17250540  0.56350314  0.98775426    -0.05800
O2226       O  0.21233925  0.60693999  0.51516497    -0.74800
Mg2227     Mg  0.23693824  0.51205843  0.94788751     1.58000
H2228       H  0.23788034  0.63495979  0.49388327    -0.05800
C2229       C  0.32963639  0.59965100  0.93128035     0.93300
O2230       O  0.31262051  0.00433434  0.92682853    -0.82100
C2231       C  0.29841217  0.98107723  0.92758019     0.93400
O2232       O  0.30281348  0.62947690  0.56239369    -0.82100
Mg2233     Mg  0.19853901  0.56985468  0.54483584     1.58200
O2234       O  0.32255922  0.57325293  0.93195153    -0.80400
O2235       O  0.17804080  0.99429359  0.55221769    -0.82100
N2236       N  0.32999396  0.61406794  0.90390286    -0.02800
C2237       C  0.31397570  0.60543543  0.88101644    -0.00200
C2238       C  0.31516344  0.62519137  0.85916310    -0.23100
C2239       C  0.33280302  0.64673737  0.86846647    -0.23300
C2240       C  0.34186761  0.63968005  0.89593805    -0.00300
H2241       H  0.30492260  0.62368063  0.83834861     0.13500
H2242       H  0.33888773  0.66535691  0.85607850     0.13500
N2243       N  0.19278661  0.65313424  0.58037037    -0.02800
C2244       C  0.20170038  0.67615117  0.56488302    -0.00200
C2245       C  0.18215609  0.69818748  0.56612750    -0.23100
C2246       C  0.16033450  0.68889249  0.58318005    -0.23300
C2247       C  0.16703044  0.66125286  0.59184834    -0.00300
H2248       H  0.18391676  0.71906178  0.55616925     0.13500
H2249       H  0.14170937  0.70135405  0.58908063     0.13500
N2250       N  0.15343717  0.97850771  0.94226937    -0.02800
C2251       C  0.13089830  0.99476642  0.95099736    -0.00200
C2252       C  0.10917653  0.99452426  0.93089770    -0.23100
C2253       C  0.11815715  0.97721379  0.90904048    -0.23300
C2254       C  0.14527824  0.96742002  0.91629913    -0.00300
H2255       H  0.08862180  0.00516196  0.93238450     0.13500
H2256       H  0.10577109  0.97175511  0.89013495     0.13500
O2257       O  0.30927519  0.75132321  0.81565056    -0.87700
C2258       C  0.29936811  0.82000304  0.86646591     0.88400
Mg2259     Mg  0.34391259  0.74824261  0.78719098     1.58100
O2260       O  0.25145303  0.81530920  0.80921746    -0.87400
O2261       O  0.26216327  0.74985272  0.81479219    -0.74700
C2262       C  0.34984051  0.87563509  0.72679206     0.93400
O2263       O  0.35672530  0.79197653  0.84438225    -0.74500
O2264       O  0.36454231  0.85276061  0.72610073    -0.82100
Mg2265     Mg  0.32005705  0.76204377  0.85867916     1.58000
C2266       C  0.23095853  0.87825161  0.75829790     0.93300
O2267       O  0.28470748  0.73042141  0.87136324    -0.80300
H2268       H  0.22154241  0.79361258  0.78725770    -0.05700
C2269       C  0.32015996  0.86643269  0.79880178     0.88300
O2270       O  0.31400755  0.76216993  0.75019119    -0.74800
O2271       O  0.29144607  0.79729180  0.85503608    -0.87600
O2272       O  0.23048000  0.87059649  0.78439273    -0.80400
C2273       C  0.22736140  0.84963103  0.87529712     0.93400
C2274       C  0.25859182  0.73105941  0.87899912     0.93300
Mg2275     Mg  0.28706311  0.84414389  0.74789800     1.58000
O2276       O  0.32344849  0.87484742  0.73393313    -0.80300
O2277       O  0.25010970  0.81449898  0.76206580    -0.74600
O2278       O  0.23443812  0.82323280  0.87462604    -0.80400
O2279       O  0.35324988  0.72657903  0.86423010    -0.82100
O2280       O  0.37018181  0.78438275  0.73015908    -0.80400
C2281       C  0.24011953  0.80742853  0.78642806     0.87700
O2282       O  0.31534993  0.80934043  0.75090344    -0.87600
O2283       O  0.29750854  0.85467888  0.79114684    -0.87700
O2284       O  0.34464902  0.85693334  0.79139896    -0.74700
Mg2285     Mg  0.24822432  0.78700718  0.84416177     1.58000
O2286       O  0.22667763  0.86432293  0.85242618    -0.82100
H2287       H  0.28748009  0.72114171  0.79421387    -0.05800
O2288       O  0.35451227  0.79150813  0.79720290    -0.87400
H2289       H  0.38447671  0.81349788  0.81880846    -0.05700
H2290       H  0.29328199  0.78737123  0.72127090    -0.05800
C2291       C  0.36613663  0.79938667  0.81987228     0.87700
C2292       C  0.28655842  0.73983908  0.80785905     0.88300
C2293       C  0.30719429  0.78653601  0.73985355     0.88300
H2294       H  0.31910742  0.88495036  0.81268428    -0.05800
O2295       O  0.29212643  0.84447531  0.85666440    -0.74800
Mg2296     Mg  0.35844639  0.81984715  0.76172762     1.58000
H2297       H  0.31343138  0.81900227  0.88492718    -0.05800
C2298       C  0.37613419  0.72794245  0.84969170     0.93300
O2299       O  0.37894641  0.74429126  0.75435331    -0.82100
C2300       C  0.37753811  0.75819271  0.73095429     0.93400
O2301       O  0.24437663  0.75431312  0.87974385    -0.82100
Mg2302     Mg  0.26222432  0.85841928  0.81966304     1.58200
O2303       O  0.37517538  0.73495777  0.82328350    -0.80400
O2304       O  0.25417473  0.87947516  0.74418123    -0.82100
N2305       N  0.36420951  0.90312571  0.72620939    -0.02800
C2306       C  0.35530067  0.92613898  0.74170654    -0.00200
C2307       C  0.37484764  0.94817267  0.74046728    -0.23100
C2308       C  0.39666615  0.93888019  0.72340941    -0.23300
C2309       C  0.38996653  0.91124422  0.71473232    -0.00300
H2310       H  0.37309099  0.96904396  0.75043326     0.13500
H2311       H  0.41529272  0.95134084  0.71751216     0.13500
N2312       N  0.22700545  0.86404932  0.90267361    -0.02800
C2313       C  0.24302759  0.85542101  0.92555919    -0.00200
C2314       C  0.24183727  0.87517810  0.94741148    -0.23100
C2315       C  0.22419343  0.89672077  0.93810789    -0.23300
C2316       C  0.21512892  0.88966072  0.91063699    -0.00300
H2317       H  0.25208005  0.87367084  0.96822525     0.13500
H2318       H  0.21810754  0.91534096  0.95049453     0.13500
N2319       N  0.40355718  0.72852553  0.86429884    -0.02800
C2320       C  0.42608751  0.74479991  0.85557703    -0.00200
C2321       C  0.44780283  0.74457238  0.87568414    -0.23100
C2322       C  0.43882779  0.72725552  0.89753855    -0.23300
C2323       C  0.41171591  0.71744294  0.89027176    -0.00300
H2324       H  0.46835074  0.75522439  0.87420414     0.13500
H2325       H  0.45121163  0.72180588  0.91644839     0.13500
O2326       O  0.24206468  0.49765439  0.74989697    -0.87700
C2327       C  0.19151296  0.50722835  0.81872424     0.88400
Mg2328     Mg  0.27120352  0.96331691  0.74678567     1.58100
O2329       O  0.24733503  0.55655282  0.81419900    -0.87400
O2330       O  0.24227099  0.54479363  0.74870355    -0.74700
C2331       C  0.33093942  0.95944459  0.87500918     0.93400
O2332       O  0.21446059  0.94987804  0.79073405    -0.74500
O2333       O  0.33257383  0.94476051  0.85215137    -0.82100
Mg2334     Mg  0.19925689  0.48628484  0.76082568     1.58000
C2335       C  0.29867591  0.57796812  0.87757895     0.93300
O2336       O  0.18503606  0.52059543  0.72905883    -0.80300
H2337       H  0.26865837  0.58665658  0.79242734    -0.05700
C2338       C  0.25901693  0.98803437  0.86483156     0.88300
O2339       O  0.30780818  0.49357204  0.76089320    -0.74800
O2340       O  0.20259742  0.51521889  0.79595398    -0.87600
O2341       O  0.27243075  0.57837881  0.86992151    -0.80400
C2342       C  0.18027072  0.57977881  0.84784946     0.93400
C2343       C  0.17712060  0.54662113  0.72890128     0.93300
Mg2344     Mg  0.30947831  0.52167120  0.84290219     1.58000
O2345       O  0.32356392  0.48576032  0.87394431    -0.80300
O2346       O  0.29450204  0.55834051  0.81319116    -0.74600
O2347       O  0.18143627  0.57254758  0.82144056    -0.80400
O2348       O  0.19403940  0.95344026  0.72528111    -0.82100
O2349       O  0.32874331  0.93718693  0.78319027    -0.80400
C2350       C  0.26990102  0.56810550  0.80625629     0.87700
O2351       O  0.30681311  0.49294972  0.80804526    -0.87600
O2352       O  0.26649758  0.51092324  0.85351714    -0.87700
O2353       O  0.26688202  0.96368621  0.85523983    -0.74700
Mg2354     Mg  0.21248283  0.55864312  0.78540700     1.58000
O2355       O  0.20286168  0.58034803  0.86320877    -0.82100
H2356       H  0.26322619  0.51980963  0.72000761    -0.05800
O2357       O  0.26157404  0.95253194  0.79001380    -0.87400
H2358       H  0.24066973  0.92236822  0.81210922    -0.05700
H2359       H  0.33627062  0.51495396  0.78610823    -0.05800
C2360       C  0.23917710  0.94067781  0.79798630     0.87700
C2361       C  0.24951342  0.52050921  0.73858989     0.88300
C2362       C  0.31788332  0.50087504  0.78526564     0.88300
H2363       H  0.24484208  0.98874958  0.88305948    -0.05800
O2364       O  0.20107479  0.51504832  0.84315419    -0.74800
Mg2365     Mg  0.29699608  0.94967917  0.81866324     1.58000
H2366       H  0.17357226  0.49258816  0.81781406    -0.05800
C2367       C  0.20901338  0.93078564  0.72618549     0.93300
O2368       O  0.30468857  0.92843833  0.74282385    -0.82100
C2369       C  0.32800792  0.92937870  0.75705469     0.93400
O2370       O  0.17746268  0.56182663  0.75157882    -0.82100
Mg2371     Mg  0.23727855  0.54578844  0.85732014     1.58200
O2372       O  0.23547218  0.93192812  0.73314028    -0.80400
O2373       O  0.31307671  0.55481172  0.87825955    -0.82100
N2374       N  0.19480173  0.90329922  0.72650046    -0.02800
C2375       C  0.20353842  0.88096667  0.74299105    -0.00200
C2376       C  0.18377209  0.85906108  0.74255662    -0.23100
C2377       C  0.16206756  0.86777483  0.72478418    -0.23300
C2378       C  0.16915937  0.89490628  0.71498819    -0.00300
H2379       H  0.18537461  0.83860723  0.75339191     0.13500
H2380       H  0.14340291  0.85520825  0.71902467     0.13500
N2381       N  0.15239318  0.58149775  0.86121194    -0.02800
C2382       C  0.12945273  0.56611949  0.85201035    -0.00200
C2383       C  0.10648348  0.56894540  0.87011617    -0.23100
C2384       C  0.11515515  0.58686194  0.89152503    -0.23300
C2385       C  0.14333061  0.59436255  0.88591808    -0.00300
H2386       H  0.08573785  0.55873420  0.86810004     0.13500
H2387       H  0.10208916  0.59379021  0.90932775     0.13500
N2388       N  0.33033853  0.94504734  0.90247645    -0.02800
C2389       C  0.31375588  0.95371588  0.92472576    -0.00200
C2390       C  0.31419686  0.93400424  0.94666860    -0.23100
C2391       C  0.33193983  0.91237667  0.93813795    -0.23300
C2392       C  0.34177638  0.91941692  0.91106413    -0.00300
H2393       H  0.30339367  0.93561855  0.96707179     0.13500
H2394       H  0.33768139  0.89379607  0.95081901     0.13500
C2395       C  0.15400640  0.64898709  0.94178078     0.80900
N2396       N  0.17823032  0.66223739  0.93241220    -0.77400
C2397       C  0.19280310  0.65202545  0.90956654     0.83300
N2398       N  0.18243468  0.62868400  0.89536292    -0.77400
C2399       C  0.15834735  0.61531544  0.90431889     0.83400
N2400       N  0.14412289  0.62579704  0.92746605    -0.79100
C2401       C  0.89867228  0.36532577  0.40226597     0.80900
N2402       N  0.87458496  0.37869329  0.41122516    -0.77400
C2403       C  0.86421867  0.40203949  0.39702746     0.83300
N2404       N  0.87879355  0.41225744  0.37418602    -0.77400
C2405       C  0.90301753  0.39900899  0.36481496     0.83400
N2406       N  0.91289878  0.37581373  0.37912291    -0.79100
C2407       C  0.65196002  0.40923370  0.19245702     0.80900
N2408       N  0.66176377  0.43289739  0.17877364    -0.77400
C2409       C  0.64858771  0.44271702  0.15455926     0.83300
N2410       N  0.62608219  0.42792513  0.14369310    -0.77400
C2411       C  0.61605654  0.40403700  0.15704317     0.83400
N2412       N  0.62921456  0.39474871  0.18120817    -0.79100
C2413       C  0.91380674  0.36132624  0.15710113     0.80900
N2414       N  0.93785737  0.37495454  0.14816941    -0.77400
C2415       C  0.94766735  0.39886377  0.16204915     0.83300
N2416       N  0.93264508  0.40930447  0.18452173    -0.77400
C2417       C  0.90839482  0.39596913  0.19379662     0.83400
N2418       N  0.89907073  0.37224034  0.17981765    -0.79100
C2419       C  0.60935359  0.14888122  0.14454523     0.80900
N2420       N  0.61916774  0.12497189  0.15842200    -0.77400
C2421       C  0.64321796  0.11134561  0.14948423     0.83300
N2422       N  0.65794875  0.12226236  0.12676640    -0.77400
C2423       C  0.64862073  0.14599143  0.11279128     0.83400
N2424       N  0.62437146  0.15932459  0.12207117    -0.79100
C2425       C  0.94096285  0.15403037  0.14953162     0.80900
N2426       N  0.93093411  0.17791619  0.16288555    -0.77400
C2427       C  0.90841824  0.19269932  0.15202782     0.83300
N2428       N  0.89523696  0.18287376  0.12781900    -0.77400
C2429       C  0.90504260  0.15921246  0.11413313     0.83400
N2430       N  0.92779726  0.14473536  0.12537315    -0.79100
C2431       C  0.89699313  0.19551248  0.40792239     0.80900
N2432       N  0.91010536  0.18594470  0.43231393    -0.77400
C2433       C  0.90006257  0.16260490  0.44639416     0.83300
N2434       N  0.87695937  0.14823501  0.43541587    -0.77400
C2435       C  0.86364600  0.15743754  0.41116936     0.83400
N2436       N  0.87409749  0.18096033  0.39745912    -0.79100
C2437       C  0.65694678  0.41258704  0.36018718     0.80900
N2438       N  0.68005141  0.39821816  0.37116486    -0.77400
C2439       C  0.69336530  0.40742217  0.39541123     0.83300
N2440       N  0.68291181  0.43094387  0.40912246    -0.77400
C2441       C  0.66001415  0.44549364  0.39866007     0.83400
N2442       N  0.64690284  0.43592571  0.37426834    -0.79100
O2443       O  0.00087959  0.06580804  0.06118196    -0.87700
C2444       C  0.56974281  0.11629454  0.05051294     0.88400
Mg2445     Mg  0.99883470  0.03617719  0.09502419     1.58100
O2446       O  0.56423711  0.06035410  0.50136638    -0.87400
O2447       O  0.99879686  0.06541201  0.51407371    -0.74700
C2448       C  0.62695957  0.47672015  0.09760333     0.93400
O2449       O  0.54277147  0.09356238  0.10832705    -0.74500
O2450       O  0.60448681  0.47589782  0.11272126    -0.82100
Mg2451     Mg  0.01215096  0.10863182  0.07240764     1.58000
C2452       C  0.62762554  0.50954629  0.47873062     0.93300
O2453       O  0.97952038  0.12253987  0.03843086    -0.80300
H2454       H  0.54190321  0.03888830  0.47157252    -0.05700
C2455       C  0.61680762  0.04914274  0.06872928     0.88300
O2456       O  0.01274387  0.50016111  0.06435976    -0.74800
O2457       O  0.54672873  0.10521311  0.04289444    -0.87600
O2458       O  0.61986791  0.03571614  0.47866913    -0.80400
C2459       C  0.59748496  0.12746056  0.47737337     0.93400
C2460       C  0.97904125  0.13028118  0.51234233     0.93300
Mg2461     Mg  0.59400152  0.49836714  0.03563951     1.58000
O2462       O  0.62555648  0.48397770  0.07123943    -0.80300
O2463       O  0.56348587  0.51320533  0.49943282    -0.74600
O2464       O  0.57124946  0.12622457  0.48511256    -0.80400
O2465       O  0.97756121  0.11400061  0.10623840    -0.82100
O2466       O  0.53736536  0.47941725  0.12149729    -0.80400
C2467       C  0.55615313  0.03774641  0.48988146     0.87700
O2468       O  0.55989740  0.50105551  0.06490649    -0.87600
O2469       O  0.60494381  0.04144215  0.04612744    -0.87700
O2470       O  0.60763799  0.04160136  0.09327959    -0.74700
Mg2471     Mg  0.53537917  0.09515625  0.49966759     1.58000
O2472       O  0.61274790  0.10492442  0.47652028    -0.82100
H2473       H  0.97036398  0.04469183  0.03952217    -0.05800
O2474       O  0.54230497  0.04644787  0.10544750    -0.87400
H2475       H  0.56484309  0.06746185  0.13539557    -0.05700
H2476       H  0.53757063  0.47172324  0.04287456    -0.05800
C2477       C  0.55033193  0.06888481  0.11730775     0.87700
C2478       C  0.98905809  0.05833419  0.03851666     0.88300
C2479       C  0.53697398  0.49003129  0.05705591     0.88300
H2480       H  0.63509545  0.06331112  0.06757685    -0.05800
O2481       O  0.59396587  0.10679611  0.04224701    -0.74800
Mg2482     Mg  0.57142622  0.51140315  0.10796106     1.58000
H2483       H  0.56924940  0.13420363  0.06520074    -0.05800
C2484       C  0.97725166  0.09810699  0.12830144     0.93300
O2485       O  0.99576108  0.50135527  0.12889150    -0.82100
C2486       C  0.01131344  0.47888808  0.12912177     0.93400
O2487       O  0.00158172  0.13011564  0.49704219    -0.82100
Mg2488     Mg  0.60765855  0.07069623  0.51129272     1.58200
O2489       O  0.98439610  0.07165298  0.12673400    -0.80400
O2490       O  0.62854011  0.49483159  0.50170248    -0.82100
N2491       N  0.61089018  0.15536119  0.47531545    -0.02800
C2492       C  0.60184622  0.17839083  0.49052461    -0.00200
C2493       C  0.62002123  0.20137401  0.48744415    -0.23100
C2494       C  0.64132651  0.19257983  0.46958773    -0.23300
C2495       C  0.63560333  0.16432730  0.46237776    -0.00300
H2496       H  0.61816710  0.22218871  0.49750847     0.13500
H2497       H  0.65916115  0.20558744  0.46254517     0.13500
N2498       N  0.97447889  0.11096029  0.15631554    -0.02800
C2499       C  0.98939158  0.10164326  0.17944781    -0.00200
C2500       C  0.98570023  0.11936194  0.20268899    -0.23100
C2501       C  0.96772437  0.14071690  0.19383694    -0.23300
C2502       C  0.96115675  0.13543474  0.16531371    -0.00300
H2503       H  0.99551001  0.11724927  0.22365428     0.13500
H2504       H  0.96029857  0.15834894  0.20691933     0.13500
N2505       N  0.65466836  0.47641685  0.11161062    -0.02800
C2506       C  0.67713143  0.49255779  0.10278867    -0.00200
C2507       C  0.69940319  0.49155953  0.12224336    -0.23100
C2508       C  0.69073559  0.47387465  0.14391523    -0.23300
C2509       C  0.66327928  0.46469613  0.13711525    -0.00300
H2510       H  0.72001419  0.50204060  0.12049457     0.13500
H2511       H  0.70349745  0.46780562  0.16237985     0.13500
O2512       O  0.49276549  0.31037259  0.30520127    -0.87700
C2513       C  0.94019050  0.29916043  0.23784669     0.88400
Mg2514     Mg  0.52162738  0.34517091  0.30689772     1.58100
O2515       O  0.49710370  0.25107756  0.24167016    -0.87400
O2516       O  0.49351433  0.26322419  0.30713776    -0.74700
C2517       C  0.57975685  0.34811869  0.17826441     0.93400
O2518       O  0.96303779  0.35681876  0.26432836    -0.74500
O2519       O  0.57943821  0.36401784  0.20032322    -0.82100
Mg2520     Mg  0.94934346  0.32071705  0.29528047     1.58000
C2521       C  0.54569003  0.22890102  0.17745366     0.93300
O2522       O  0.93713160  0.28573710  0.32790622    -0.80300
H2523       H  0.51943191  0.22174593  0.26370194    -0.05700
C2524       C  0.50666916  0.31890071  0.18925814     0.88300
O2525       O  0.55820513  0.31542233  0.29248635    -0.74800
O2526       O  0.95205402  0.29146244  0.26044983    -0.87600
O2527       O  0.51963867  0.22942915  0.18508117    -0.80400
C2528       C  0.93004447  0.22672648  0.20897674     0.93400
C2529       C  0.92937433  0.25956617  0.32784754     0.93300
Mg2530     Mg  0.55816648  0.28619294  0.21154283     1.58000
O2531       O  0.57261125  0.32166539  0.17983457    -0.80300
O2532       O  0.54425695  0.25017913  0.24220960    -0.74600
O2533       O  0.93144842  0.23398893  0.23533986    -0.80400
O2534       O  0.94426311  0.35494669  0.33005416    -0.82100
O2535       O  0.57748636  0.37255667  0.26812761    -0.80400
C2536       C  0.52002747  0.24005240  0.24951857     0.87700
O2537       O  0.55612312  0.31582572  0.24538232    -0.87600
O2538       O  0.51469568  0.29646471  0.20112077    -0.87700
O2539       O  0.51422864  0.34357905  0.19823766    -0.74700
Mg2540     Mg  0.96300088  0.24838879  0.27094006     1.58000
O2541       O  0.95251496  0.22591134  0.19385500    -0.82100
H2542       H  0.51509786  0.28890819  0.33499721    -0.05800
O2543       O  0.51027500  0.35523354  0.26367336    -0.87400
H2544       H  0.98775124  0.38422582  0.24137173    -0.05700
H2545       H  0.58663999  0.29470835  0.26703975    -0.05800
C2546       C  0.98725987  0.36631620  0.25605882     0.87700
C2547       C  0.50084823  0.28776569  0.31668813     0.88300
C2548       C  0.56794637  0.30835212  0.26804659     0.88300
H2549       H  0.49215936  0.31747633  0.17116920    -0.05800
O2550       O  0.94936142  0.29161714  0.21329695    -0.74800
Mg2551     Mg  0.54485089  0.35864985  0.23415577     1.58000
H2552       H  0.92190131  0.31332810  0.23899724    -0.05800
C2553       C  0.95952850  0.37748090  0.32920235     0.93300
O2554       O  0.55542778  0.38012654  0.30952189    -0.82100
C2555       C  0.57796947  0.38028717  0.29422371     0.93400
O2556       O  0.92846279  0.24484810  0.30487710    -0.82100
Mg2557     Mg  0.48557467  0.26141854  0.19861368     1.58200
O2558       O  0.48576263  0.37624285  0.32145911    -0.80400
O2559       O  0.56123768  0.25137088  0.17767492    -0.82100
N2560       N  0.90233301  0.22640437  0.19497462    -0.02800
C2561       C  0.87986304  0.24253521  0.20379828    -0.00200
C2562       C  0.85758518  0.24151859  0.18435214    -0.23100
C2563       C  0.86625625  0.22383314  0.16268251    -0.23300
C2564       C  0.89372071  0.21467227  0.16947544    -0.00300
H2565       H  0.83696861  0.25198872  0.18610509     0.13500
H2566       H  0.85349155  0.21775220  0.14422368     0.13500
N2567       N  0.58254750  0.36096374  0.15024898    -0.02800
C2568       C  0.56764908  0.35164007  0.12711058    -0.00200
C2569       C  0.57135714  0.36934974  0.10386569    -0.23100
C2570       C  0.58932842  0.39070652  0.11272260    -0.23300
C2571       C  0.59587653  0.38543417  0.14125209    -0.00300
H2572       H  0.56155975  0.36723125  0.08289528     0.13500
H2573       H  0.59676362  0.40833371  0.09963939     0.13500
N2574       N  0.94612673  0.40538274  0.33126862    -0.02800
C2575       C  0.95517026  0.42841457  0.31606338    -0.00200
C2576       C  0.93699646  0.45139832  0.31915053    -0.23100
C2577       C  0.91569307  0.44260235  0.33700818    -0.23300
C2578       C  0.92141631  0.41434820  0.34421207    -0.00300
H2579       H  0.93885023  0.47221457  0.30909013     0.13500
H2580       H  0.89786034  0.45561014  0.34405614     0.13500
O2581       O  0.60292767  0.99641620  0.27494247    -0.87700
C2582       C  0.52295567  0.99309269  0.30899836     0.88400
Mg2583     Mg  0.61625269  0.03680109  0.25724063     1.58100
O2584       O  0.53169344  0.45428270  0.24568959    -0.87400
O2585       O  0.59495037  0.45063130  0.26659033    -0.74700
C2586       C  0.00954139  0.07776074  0.18018746     0.93400
O2587       O  0.56602362  0.04492592  0.30710475    -0.74500
O2588       O  0.53579498  0.08371591  0.18308511    -0.82100
Mg2589     Mg  0.58544309  0.00008338  0.31659420     1.58000
C2590       C  0.97662691  0.46019299  0.18090429     0.93300
O2591       O  0.60786962  0.45615389  0.32647051    -0.80300
H2592       H  0.55246016  0.42596970  0.22103866    -0.05700
C2593       C  0.99748119  0.03401276  0.24275594     0.88300
O2594       O  0.60670927  0.01779938  0.21180403    -0.74800
O2595       O  0.54596448  0.48323912  0.30018122    -0.87600
O2596       O  0.98006063  0.44903492  0.20549653    -0.80400
C2597       C  0.97936565  0.42952983  0.29630868     0.93400
C2598       C  0.59658583  0.43168074  0.33007954     0.93300
Mg2599     Mg  0.52070041  0.00748876  0.19068522     1.58000
O2600       O  0.00021870  0.05217149  0.18236707    -0.80300
O2601       O  0.54032873  0.46231872  0.20003231    -0.74600
O2602       O  0.50483146  0.43227652  0.30602590    -0.80400
O2603       O  0.62506706  0.02027159  0.33293879    -0.82100
O2604       O  0.60039433  0.07799450  0.19950434    -0.80400
C2605       C  0.54193861  0.44657415  0.22242170     0.87700
O2606       O  0.56079348  0.02578597  0.20424508    -0.87600
O2607       O  0.00629988  0.01108893  0.23262171    -0.87700
O2608       O  0.51231301  0.05695426  0.24163944    -0.74700
Mg2609     Mg  0.54969904  0.44112043  0.28593877     1.58000
O2610       O  0.97365444  0.43255464  0.26999308    -0.82100
H2611       H  0.63119491  0.47159111  0.25433318    -0.05800
O2612       O  0.57422555  0.05106852  0.26122661    -0.87400
H2613       H  0.55444728  0.08074171  0.28502491    -0.05700
H2614       H  0.58551062  0.00587508  0.17542237    -0.05800
C2615       C  0.56452648  0.05989335  0.28427942     0.87700
C2616       C  0.61062848  0.47305614  0.26481094     0.88300
C2617       C  0.58416350  0.01603933  0.19619994     0.88300
H2618       H  0.97673853  0.03453149  0.25295034    -0.05800
O2619       O  0.99996595  0.99149310  0.29414996    -0.74800
Mg2620     Mg  0.55678611  0.06735147  0.22212944     1.58000
H2621       H  0.52237486  0.00335111  0.32975807    -0.05800
C2622       C  0.62830578  0.04659750  0.32757225     0.93300
O2623       O  0.62746491  0.08019954  0.23766458    -0.82100
C2624       C  0.62499993  0.08158649  0.21067984     0.93400
O2625       O  0.56958079  0.42957501  0.32910860    -0.82100
Mg2626     Mg  0.99003598  0.47181480  0.24942240     1.58200
O2627       O  0.62546390  0.05656658  0.30226302    -0.80400
O2628       O  0.97771910  0.48721033  0.17867715    -0.82100
N2629       N  0.61371090  0.40623164  0.32624465    -0.02800
C2630       C  0.60615408  0.38470241  0.30811028    -0.00200
C2631       C  0.62782863  0.36477586  0.30597346    -0.23100
C2632       C  0.64935862  0.37376495  0.32391285    -0.23300
C2633       C  0.64037367  0.39914742  0.33642410    -0.00300
H2634       H  0.62751589  0.34515809  0.29359119     0.13500
H2635       H  0.66912967  0.36234205  0.32810781     0.13500
N2636       N  0.65030104  0.07814760  0.19333649    -0.02800
C2637       C  0.67225926  0.06047601  0.20086237    -0.00200
C2638       C  0.69198490  0.05836120  0.17914194    -0.23100
C2639       C  0.68247951  0.07582707  0.15756585    -0.23300
C2640       C  0.65697724  0.08808764  0.16653856    -0.00300
H2641       H  0.71175980  0.04622602  0.17940997     0.13500
H2642       H  0.69363068  0.07983994  0.13769401     0.13500
N2643       N  0.98037608  0.44287871  0.15549806    -0.02800
C2644       C  0.99793080  0.45064124  0.13370731    -0.00200
C2645       C  0.00043465  0.42890568  0.11390762    -0.23100
C2646       C  0.98330489  0.40704152  0.12319015    -0.23300
C2647       C  0.97087296  0.41591733  0.14859430    -0.00300
H2648       H  0.01257011  0.42935942  0.09421042     0.13500
H2649       H  0.97952358  0.38711262  0.11191493     0.13500
O2650       O  0.80967939  0.30654662  0.99238349    -0.87700
C2651       C  0.79800054  0.23801984  0.44176140     0.88400
Mg2652     Mg  0.84453458  0.30863391  0.02117431     1.58100
O2653       O  0.75020071  0.24294932  0.99853970    -0.87400
O2654       O  0.76251250  0.30833820  0.99338724    -0.74700
C2655       C  0.84799064  0.18077415  0.08040039     0.93400
O2656       O  0.85594660  0.26503696  0.46342820    -0.74500
O2657       O  0.86297145  0.20342440  0.08129887    -0.82100
Mg2658     Mg  0.81974014  0.29577685  0.44926339     1.58000
C2659       C  0.72899677  0.17938603  0.04953098     0.93300
O2660       O  0.78458416  0.32836761  0.43666244    -0.80300
H2661       H  0.72074767  0.26496160  0.02047545    -0.05700
C2662       C  0.81783004  0.19067014  0.00860051     0.88300
O2663       O  0.81474873  0.29478744  0.05788049    -0.74800
O2664       O  0.79052157  0.26091113  0.45307259    -0.87600
O2665       O  0.72826504  0.18719216  0.02339522    -0.80400
C2666       C  0.72607620  0.20943443  0.43158699     0.93400
C2667       C  0.75833914  0.32795369  0.42900383     0.93300
Mg2668     Mg  0.78580608  0.21331642  0.05980167     1.58000
O2669       O  0.82153132  0.18192269  0.07344900    -0.80300
O2670       O  0.74920708  0.24357745  0.04569190    -0.74600
O2671       O  0.73345507  0.23574900  0.43264661    -0.80400
O2672       O  0.85415697  0.33033684  0.44336857    -0.82100
O2673       O  0.87198671  0.27058149  0.07752112    -0.80400
C2674       C  0.73913239  0.25087936  0.02131892     0.87700
O2675       O  0.81495143  0.24764800  0.05668980    -0.87600
O2676       O  0.79543514  0.20252789  0.01657375    -0.87700
O2677       O  0.84254800  0.19986742  0.01584989    -0.74700
Mg2678     Mg  0.74754100  0.27166326  0.46368537     1.58000
O2679       O  0.72443505  0.19475753  0.45444828    -0.82100
H2680       H  0.78835608  0.33665322  0.01415285    -0.05800
O2681       O  0.85441717  0.26520856  0.01062793    -0.85800
H2682       H  0.88345086  0.24257712  0.48876718    -0.05700
H2683       H  0.79379522  0.26980752  0.08658043    -0.05800
C2684       C  0.86550935  0.25721639  0.48785777     0.87700
C2685       C  0.78711350  0.31810126  0.00032443     0.88300
C2686       C  0.80750594  0.27050441  0.06799644     0.88300
H2687       H  0.81633420  0.17235977  0.99447803    -0.05800
O2688       O  0.79013151  0.21367400  0.45135520    -0.74800
Mg2689     Mg  0.85775713  0.23627241  0.04575631     1.58000
H2690       H  0.81217666  0.23873060  0.42353435    -0.05800
C2691       C  0.87674882  0.32977042  0.45872693     0.93300
O2692       O  0.87955697  0.31181323  0.05500113    -0.82100
C2693       C  0.87990356  0.29660680  0.07767794     0.93400
O2694       O  0.74394274  0.30479535  0.42832239    -0.82100
Mg2695     Mg  0.76001406  0.19967714  0.98792479     1.58200
O2696       O  0.87558038  0.32253846  0.98513719    -0.80400
O2697       O  0.75231435  0.17844441  0.06376472    -0.82100
N2698       N  0.72668419  0.19502855  0.40412426    -0.02800
C2699       C  0.74326785  0.20369308  0.38187425    -0.00200
C2700       C  0.74283880  0.18397210  0.35993962    -0.23100
C2701       C  0.72510131  0.16234310  0.36847501    -0.23300
C2702       C  0.71525575  0.16939163  0.39554369    -0.00300
H2703       H  0.75364553  0.18558169  0.33953789     0.13500
H2704       H  0.71936832  0.14375597  0.35579944     0.13500
N2705       N  0.86219387  0.15328324  0.08009067    -0.02800
C2706       C  0.85345178  0.13095134  0.06360249    -0.00200
C2707       C  0.87321033  0.10903823  0.06404411    -0.23100
C2708       C  0.89491598  0.11774773  0.08181796    -0.23300
C2709       C  0.88783233  0.14488408  0.09160667    -0.00300
H2710       H  0.87160244  0.08858337  0.05321177     0.13500
H2711       H  0.91357595  0.10517624  0.08758210     0.13500
N2712       N  0.90462575  0.33149486  0.44536320    -0.02800
C2713       C  0.92756777  0.31611641  0.45456093    -0.00200
C2714       C  0.95053697  0.31894738  0.43645617    -0.23100
C2715       C  0.94186410  0.33686830  0.41505177    -0.23300
C2716       C  0.91368795  0.34436646  0.42066054    -0.00300
H2717       H  0.97128379  0.30873756  0.43847097     0.13500
H2718       H  0.95493007  0.34380208  0.39725146     0.13500
O2719       O  0.52532482  0.20427522  0.06089196    -0.87700
C2720       C  0.55954464  0.28400223  0.06380702     0.88400
Mg2721     Mg  0.50732093  0.19110886  0.02064235     1.58100
O2722       O  0.49623504  0.27578888  0.10232267    -0.87400
O2723       O  0.51669159  0.21232206  0.10654784    -0.74700
C2724       C  0.92873396  0.29660300  0.47900147     0.93400
O2725       O  0.55706420  0.24146711  0.01242524    -0.74500
O2726       O  0.93197225  0.27027786  0.47363045    -0.82100
Mg2727     Mg  0.56698528  0.22179935  0.05715861     1.58000
C2728       C  0.93202888  0.33158357  0.09589394     0.93300
O2729       O  0.57695319  0.19903232  0.10109122    -0.80300
H2730       H  0.97151973  0.25588065  0.13114807    -0.05700
C2731       C  0.49250323  0.30988695  0.02228865     0.88300
O2732       O  0.96206915  0.20062856  0.03998413    -0.74800
O2733       O  0.55072601  0.26108136  0.07394767    -0.87600
O2734       O  0.95663728  0.32799741  0.10706558    -0.80400
C2735       C  0.54749498  0.32776193  0.12636946     0.93400
C2736       C  0.58038941  0.21019655  0.12568041     0.93300
Mg2737     Mg  0.94077430  0.28679902  0.04932944     1.58000
O2738       O  0.93156340  0.30656054  0.00430544    -0.80300
O2739       O  0.95031941  0.26780041  0.09476598    -0.74600
O2740       O  0.55681363  0.30217112  0.12419203    -0.80400
O2741       O  0.58335877  0.18252787  0.03660217    -0.82100
O2742       O  0.94915353  0.20615826  0.48010062    -0.80400
C2743       C  0.97286563  0.26604298  0.11036954     0.87700
O2744       O  0.95409875  0.24641336  0.03162844    -0.87600
O2745       O  0.98280092  0.30106672  0.04534173    -0.87700
O2746       O  0.49101391  0.29491861  0.49947324    -0.74700
Mg2747     Mg  0.53632566  0.25749174  0.11588518     1.58000
O2748       O  0.52124181  0.33372121  0.12347472    -0.82100
H2749       H  0.50455390  0.17597088  0.08554846    -0.05800
O2750       O  0.51106132  0.23322766  0.50639824    -0.87400
H2751       H  0.53465728  0.25332863  0.47681971    -0.05700
H2752       H  0.92582576  0.22159451  0.05223542    -0.05800
C2753       C  0.53407321  0.24307314  0.49758038     0.87700
C2754       C  0.51507847  0.19657335  0.08416131     0.88300
C2755       C  0.94639349  0.22305570  0.04175996     0.88300
H2756       H  0.50258301  0.33073462  0.02154116    -0.05800
O2757       O  0.54471463  0.30694570  0.06492132    -0.74800
Mg2758     Mg  0.97158865  0.25008073  0.48998070     1.58000
H2759       H  0.58028559  0.28451670  0.05360943    -0.05800
C2760       C  0.57764868  0.17950438  0.51027688     0.93300
O2761       O  0.98743724  0.17957089  0.47746676    -0.82100
C2762       C  0.96043272  0.18168259  0.47649334     0.93400
O2763       O  0.57930336  0.23721429  0.12790078    -0.82100
Mg2764     Mg  0.50024395  0.31735181  0.08443537     1.58200
O2765       O  0.55218443  0.18225600  0.50055679    -0.80400
O2766       O  0.92956101  0.33019774  0.06890896    -0.82100
N2767       N  0.90673124  0.32813366  0.11324120    -0.02800
C2768       C  0.88477828  0.31045534  0.10571558    -0.00200
C2769       C  0.86505749  0.30832893  0.12743927    -0.23100
C2770       C  0.87455933  0.32579425  0.14901707    -0.23300
C2771       C  0.90005494  0.33806639  0.14004269    -0.00300
H2772       H  0.84528718  0.29618627  0.12717265     0.13500
H2773       H  0.86340992  0.32979905  0.16889145     0.13500
N2774       N  0.57663827  0.19288983  0.15109058    -0.02800
C2775       C  0.55907889  0.20065476  0.17287692    -0.00200
C2776       C  0.55657905  0.17892341  0.19268182    -0.23100
C2777       C  0.57371559  0.15706025  0.18340623    -0.23300
C2778       C  0.58614645  0.16593232  0.15800062    -0.00300
H2779       H  0.54444193  0.17937959  0.21237812     0.13500
H2780       H  0.57750058  0.13713437  0.19468557     0.13500
N2781       N  0.94330244  0.15623787  0.48032889    -0.02800
C2782       C  0.95085667  0.13470526  0.49845990    -0.00200
C2783       C  0.92917708  0.11478535  0.50060046    -0.23100
C2784       C  0.90764607  0.12378196  0.48266656    -0.23300
C2785       C  0.91663580  0.14916209  0.47015477    -0.00300
H2786       H  0.92948646  0.09516748  0.51298179     0.13500
H2787       H  0.88787104  0.11236517  0.47847535     0.13500
O2788       O  0.80554011  0.06532320  0.99735577    -0.87700
C2789       C  0.73683227  0.11644346  0.00777148     0.88400
Mg2790     Mg  0.80876794  0.03701894  0.46241019     1.58100
O2791       O  0.74163688  0.05934694  0.05566215    -0.87400
O2792       O  0.80687824  0.06450085  0.04450697    -0.74700
C2793       C  0.68086266  0.47793594  0.45687547     0.93400
O2794       O  0.76486558  0.09448579  0.44990443    -0.74500
O2795       O  0.70374741  0.47657875  0.44233657    -0.82100
Mg2796     Mg  0.79477030  0.10843445  0.98691528     1.58000
C2797       C  0.67944961  0.00820038  0.07561371     0.93300
O2798       O  0.82651516  0.12060008  0.02219152    -0.80300
H2799       H  0.76369953  0.03737897  0.08529961    -0.05700
C2800       C  0.69084743  0.04938740  0.48668990     0.88300
O2801       O  0.79482745  0.49987035  0.99177827    -0.74800
O2802       O  0.75948391  0.10469045  0.01542827    -0.87600
O2803       O  0.68680284  0.03439140  0.07640456    -0.80400
C2804       C  0.70715344  0.12564200  0.07978160     0.93400
C2805       C  0.82603419  0.12824692  0.04828907     0.93300
Mg2806     Mg  0.71307715  0.49825066  0.01937495     1.58000
O2807       O  0.68182172  0.48495809  0.98327900    -0.80300
O2808       O  0.74297782  0.51217713  0.05637699    -0.74600
O2809       O  0.73354562  0.12485106  0.07264291    -0.80400
O2810       O  0.83031404  0.11433967  0.45414565    -0.82100
O2811       O  0.77229535  0.48042515  0.43521404    -0.80400
C2812       C  0.74979017  0.03654319  0.06671463     0.87700
O2813       O  0.74771506  0.50133731  0.99091703    -0.87600
O2814       O  0.70247139  0.04151589  0.00936213    -0.87700
O2815       O  0.70026319  0.04197738  0.46218124    -0.74700
Mg2816     Mg  0.76992606  0.09414628  0.05867587     1.58000
O2817       O  0.69244769  0.10277010  0.08046704    -0.82100
H2818       H  0.83544817  0.04361980  0.01931295    -0.05800
O2819       O  0.76554581  0.04730160  0.45153203    -0.87400
H2820       H  0.74356162  0.06901326  0.42164055    -0.05700
H2821       H  0.76951216  0.47115821  0.01235518    -0.05800
C2822       C  0.75762391  0.07001340  0.44010231     0.87700
C2823       C  0.81687133  0.05743682  0.02014419     0.88300
C2824       C  0.77043269  0.48985538  0.99871027     0.88300
H2825       H  0.67250478  0.06349628  0.48775073    -0.05800
O2826       O  0.71234267  0.10694249  0.01516992    -0.74800
Mg2827     Mg  0.73693803  0.01204759  0.44788930     1.58000
H2828       H  0.73788521  0.13496210  0.99389015    -0.05800
C2829       C  0.82963846  0.09964395  0.43127673     0.93300
O2830       O  0.81262061  0.50432340  0.42682960    -0.82100
C2831       C  0.79841179  0.48106641  0.42757991     0.93400
O2832       O  0.80281600  0.12947267  0.06240209    -0.82100
Mg2833     Mg  0.69854077  0.06985636  0.04483827     1.58200
O2834       O  0.82256087  0.07324578  0.43194925    -0.80400
O2835       O  0.67804373  0.49429446  0.05221624    -0.82100
N2836       N  0.83000776  0.11405705  0.40389751    -0.02800
C2837       C  0.81399765  0.10542221  0.38100671    -0.00200
C2838       C  0.81519714  0.12517259  0.35914925    -0.23100
C2839       C  0.83283481  0.14671874  0.36845528    -0.23300
C2840       C  0.84188642  0.13966682  0.39593247    -0.00300
H2841       H  0.80496412  0.12365869  0.33833132     0.13500
H2842       H  0.83892592  0.16533543  0.35606607     0.13500
N2843       N  0.69278919  0.15313510  0.08036797    -0.02800
C2844       C  0.70170187  0.17614874  0.06487498    -0.00200
C2845       C  0.68215725  0.19818506  0.06611563    -0.23100
C2846       C  0.66033682  0.18889380  0.08317150    -0.23300
C2847       C  0.66703349  0.16125616  0.09184539    -0.00300
H2848       H  0.68391729  0.21905721  0.05615267     0.13500
H2849       H  0.64171170  0.20135669  0.08907051     0.13500
N2850       N  0.65343886  0.47850665  0.44226931    -0.02800
C2851       C  0.63090186  0.49477139  0.45099159    -0.00200
C2852       C  0.60918519  0.49453467  0.43088627    -0.23100
C2853       C  0.61816676  0.47722146  0.40903163    -0.23300
C2854       C  0.64528342  0.46742039  0.41629742    -0.00300
H2855       H  0.58863267  0.50517800  0.43236774     0.13500
H2856       H  0.60578400  0.47176594  0.39012279     0.13500
O2857       O  0.80928435  0.25132234  0.31566151    -0.87700
C2858       C  0.79937501  0.32000402  0.36647297     0.88400
Mg2859     Mg  0.84392246  0.24824016  0.28720325     1.58100
O2860       O  0.75145901  0.31530747  0.30922507    -0.87400
O2861       O  0.76217228  0.24985151  0.31480106    -0.74700
C2862       C  0.84984704  0.37562594  0.22679443     0.93400
O2863       O  0.85673329  0.29197795  0.34439264    -0.74500
O2864       O  0.86454666  0.35275024  0.22610282    -0.82100
Mg2865     Mg  0.82006500  0.26204478  0.35868967     1.58000
C2866       C  0.73096222  0.37825010  0.25830253     0.93300
O2867       O  0.78471667  0.23042209  0.37137401    -0.80300
H2868       H  0.72154679  0.29361091  0.28726730    -0.05700
C2869       C  0.82016533  0.36643136  0.29880548     0.88300
O2870       O  0.81401744  0.26216393  0.25020193    -0.74800
O2871       O  0.79145309  0.29729189  0.35504461    -0.87600
O2872       O  0.73048501  0.37059631  0.28439802    -0.80400
C2873       C  0.72736778  0.34962900  0.37530408     0.93400
C2874       C  0.75860067  0.23105861  0.37900881     0.93300
Mg2875     Mg  0.78706824  0.34413790  0.24790346     1.58000
O2876       O  0.82345490  0.37484026  0.23393599    -0.80300
O2877       O  0.75011452  0.31449462  0.26207364    -0.74600
O2878       O  0.73444424  0.32323074  0.37463287    -0.80400
O2879       O  0.85325789  0.22658056  0.36424209    -0.82100
O2880       O  0.87018844  0.28437539  0.23017122    -0.80400
C2881       C  0.74012448  0.30742615  0.28643646     0.87700
O2882       O  0.81535591  0.30933437  0.25091295    -0.87600
O2883       O  0.79751370  0.35467715  0.29115174    -0.87700
O2884       O  0.84465432  0.35693154  0.29140288    -0.74700
Mg2885     Mg  0.74823162  0.28700564  0.34416978     1.58000
O2886       O  0.72668445  0.36432152  0.35243340    -0.82100
H2887       H  0.78749037  0.22114024  0.29422482    -0.05800
O2888       O  0.85452085  0.29150679  0.29721328    -0.87400
H2889       H  0.88448499  0.31349839  0.31881804    -0.05700
H2890       H  0.79328988  0.28736275  0.22128054    -0.05800
C2891       C  0.86614475  0.29938681  0.31988237     0.87700
C2892       C  0.78656791  0.23983795  0.30786927     0.88300
C2893       C  0.80720208  0.28652911  0.23986375     0.88300
H2894       H  0.81911308  0.38495011  0.31268682    -0.05800
O2895       O  0.79213284  0.34447554  0.35666986    -0.74800
Mg2896     Mg  0.85845265  0.31984253  0.26173515     1.58000
H2897       H  0.81343859  0.31900479  0.38493360    -0.05800
C2898       C  0.87614244  0.22794282  0.34970395     0.93300
O2899       O  0.87895769  0.24428680  0.25436801    -0.82100
C2900       C  0.87754634  0.25818595  0.23096797     0.93400
O2901       O  0.74438390  0.25431144  0.37975211    -0.82100
Mg2902     Mg  0.76223013  0.35841814  0.31966865     1.58200
O2903       O  0.87518467  0.23495793  0.32329587    -0.80400
O2904       O  0.75417738  0.37946848  0.24418325    -0.82100
N2905       N  0.86421956  0.40311495  0.22621557    -0.02800
C2906       C  0.85531191  0.42612744  0.24171428    -0.00200
C2907       C  0.87486275  0.44815802  0.24048269    -0.23100
C2908       C  0.89668241  0.43886490  0.22342709    -0.23300
C2909       C  0.88997952  0.41123170  0.21474365    -0.00300
H2910       H  0.87310781  0.46902798  0.25045178     0.13500
H2911       H  0.91531159  0.45132390  0.21753491     0.13500
N2912       N  0.72701105  0.36404667  0.40268077    -0.02800
C2913       C  0.74303348  0.35541840  0.42556604    -0.00200
C2914       C  0.74184244  0.37517524  0.44741862    -0.23100
C2915       C  0.72419759  0.39671758  0.43811533    -0.23300
C2916       C  0.71513337  0.38965745  0.41064430    -0.00300
H2917       H  0.75208471  0.37366747  0.46823236     0.13500
H2918       H  0.71811087  0.41533747  0.45050243     0.13500
N2919       N  0.90356487  0.22852390  0.36431145    -0.02800
C2920       C  0.92609762  0.24479456  0.35558946    -0.00200
C2921       C  0.94781130  0.24456665  0.37569838    -0.23100
C2922       C  0.93883241  0.22725280  0.39755379    -0.23300
C2923       C  0.91172011  0.21744254  0.39028542    -0.00300
H2924       H  0.96836074  0.25521558  0.37421889     0.13500
H2925       H  0.95121412  0.22180292  0.41646440     0.13500
O2926       O  0.74207775  0.99765265  0.24988895    -0.87700
C2927       C  0.69152576  0.00722802  0.31871710     0.88400
Mg2928     Mg  0.77121574  0.46331231  0.24677957     1.58100
O2929       O  0.74735017  0.05655042  0.31419287    -0.87400
O2930       O  0.74228433  0.04479213  0.24869752    -0.74700
C2931       C  0.83094086  0.45943567  0.37500671     0.93400
O2932       O  0.71446926  0.44987574  0.29072415    -0.74500
O2933       O  0.83257551  0.44475231  0.35214862    -0.82100
Mg2934     Mg  0.69926950  0.98628508  0.26081718     1.58000
C2935       C  0.79869274  0.07795836  0.37757126     0.93300
O2936       O  0.68504929  0.02059819  0.22905183    -0.80300
H2937       H  0.76867699  0.08665056  0.29241927    -0.05700
C2938       C  0.75902352  0.48803123  0.36482484     0.88300
O2939       O  0.80782055  0.99356570  0.26088858    -0.74800
O2940       O  0.70261129  0.01521784  0.29594718    -0.87600
O2941       O  0.77244786  0.07837326  0.36991363    -0.80400
C2942       C  0.68028610  0.07977705  0.34784820     0.93400
C2943       C  0.67713255  0.04662365  0.22889781     0.93300
Mg2944     Mg  0.80948914  0.02166238  0.34289769     1.58000
O2945       O  0.82356819  0.98575190  0.37394245    -0.80300
O2946       O  0.79451754  0.05833271  0.31318496    -0.74600
O2947       O  0.68144977  0.07254513  0.32143918    -0.80400
O2948       O  0.69405506  0.45344123  0.22527064    -0.82100
O2949       O  0.82874870  0.43717792  0.28319192    -0.80400
C2950       C  0.76991756  0.06810005  0.30624952     0.87700
O2951       O  0.80682307  0.99294209  0.30804076    -0.87600
O2952       O  0.76650705  0.01091908  0.35351029    -0.87700
O2953       O  0.76688574  0.46368215  0.35523356    -0.74700
Mg2954     Mg  0.71249672  0.05864202  0.28540266     1.58000
O2955       O  0.70287908  0.08034976  0.36320427    -0.82100
H2956       H  0.76323990  0.01980911  0.22000067    -0.05800
O2957       O  0.76158248  0.45252898  0.29000742    -0.87400
H2958       H  0.74067627  0.42236465  0.31210035    -0.05700
H2959       H  0.83628327  0.01494484  0.28610558    -0.05800
C2960       C  0.73918493  0.44067493  0.29797786     0.87700
C2961       C  0.74952703  0.02050798  0.23858310     0.88300
C2962       C  0.81789507  0.00086699  0.28526177     0.88300
H2963       H  0.74484839  0.48874846  0.38305252    -0.05800
O2964       O  0.70108654  0.01504887  0.34314725    -0.74800
Mg2965     Mg  0.79700075  0.44967313  0.31865948     1.58000
H2966       H  0.67358472  0.99258850  0.31780646    -0.05800
C2967       C  0.70902507  0.43078397  0.22617998     0.93300
O2968       O  0.80469983  0.42843221  0.24282148    -0.82100
C2969       C  0.82801677  0.42936996  0.25705655     0.93400
O2970       O  0.67747535  0.06182671  0.25157692    -0.82100
Mg2971     Mg  0.73729238  0.04578677  0.35731381     1.58200
O2972       O  0.73548391  0.43192329  0.23313514    -0.80400
O2973       O  0.81308905  0.05479967  0.37825506    -0.82100
N2974       N  0.69480807  0.40330035  0.22650234    -0.02800
C2975       C  0.70354052  0.38096968  0.24299819    -0.00200
C2976       C  0.68376802  0.35906944  0.24257108    -0.23100
C2977       C  0.66206463  0.36778419  0.22479743    -0.23300
C2978       C  0.66916293  0.39491095  0.21499364    -0.00300
H2979       H  0.68536570  0.33861800  0.25341163     0.13500
H2980       H  0.64339633  0.35522136  0.21904262     0.13500
N2981       N  0.65240991  0.08149026  0.36121507    -0.02800
C2982       C  0.62947124  0.06610692  0.35201688    -0.00200
C2983       C  0.60650415  0.06892699  0.37012609    -0.23100
C2984       C  0.61517451  0.08684496  0.39153375    -0.23300
C2985       C  0.64334730  0.09435279  0.38592286    -0.00300
H2986       H  0.58576051  0.05871097  0.36811265     0.13500
H2987       H  0.60210913  0.09376984  0.40933814     0.13500
N2988       N  0.83033815  0.44503744  0.40247307    -0.02800
C2989       C  0.81375493  0.45370458  0.42472262    -0.00200
C2990       C  0.81419499  0.43399071  0.44666358    -0.23100
C2991       C  0.83193788  0.41236361  0.43813142    -0.23300
C2992       C  0.84177544  0.41940620  0.41105856    -0.00300
H2993       H  0.80339143  0.43560341  0.46706656     0.13500
H2994       H  0.83767899  0.39378173  0.45081117     0.13500
C2995       C  0.65400622  0.14899056  0.44177609     0.80900
N2996       N  0.67823180  0.16224018  0.43241096    -0.77400
C2997       C  0.69281136  0.15202408  0.40957139     0.83300
N2998       N  0.68244784  0.12867929  0.39536947    -0.77400
C2999       C  0.65835896  0.11531117  0.40432210     0.83400
N3000       N  0.64412815  0.12579672  0.42746381    -0.79100
C3001       C  0.89866710  0.36532926  0.90226813     0.80900
N3002       N  0.87458084  0.37869877  0.91122827    -0.77400
C3003       C  0.86421916  0.40204942  0.89703386     0.83300
N3004       N  0.87879825  0.41227043  0.87419679    -0.77400
C3005       C  0.90302145  0.39902100  0.86482585     0.83400
N3006       N  0.91289741  0.37582066  0.87912894    -0.79100
C3007       C  0.65195362  0.40923035  0.69245449     0.80900
N3008       N  0.66175479  0.43289522  0.67877135    -0.77400
C3009       C  0.64857894  0.44271288  0.65455583     0.83300
N3010       N  0.62607625  0.42791720  0.64368809    -0.77400
C3011       C  0.61605296  0.40402810  0.65703891     0.83400
N3012       N  0.62921066  0.39474265  0.68120489    -0.79100
C3013       C  0.91379919  0.36132741  0.65710131     0.80900
N3014       N  0.93785149  0.37495265  0.64817042    -0.77400
C3015       C  0.94766011  0.39886429  0.66204613     0.83300
N3016       N  0.93263486  0.40931065  0.68451425    -0.77400
C3017       C  0.90838308  0.39597796  0.69378887     0.83400
N3018       N  0.89906014  0.37224656  0.67981346    -0.79100
C3019       C  0.60934528  0.14886756  0.64454012     0.80900
N3020       N  0.61916000  0.12495797  0.65841540    -0.77400
C3021       C  0.64321237  0.11133466  0.64947924     0.83300
N3022       N  0.65794487  0.12225428  0.62676389    -0.77400
C3023       C  0.64861613  0.14598387  0.61278984     0.83400
N3024       N  0.62436478  0.15931427  0.62206860    -0.79100
C3025       C  0.94095436  0.15402463  0.64953085     0.80900
N3026       N  0.93092623  0.17791156  0.66288373    -0.77400
C3027       C  0.90841319  0.19269697  0.65202265     0.83300
N3028       N  0.89523393  0.18287183  0.62781273    -0.77400
C3029       C  0.90503881  0.15920937  0.61412841     0.83400
N3030       N  0.92779084  0.14473051  0.62537099    -0.79100
C3031       C  0.89699198  0.19551194  0.90791056     0.80900
N3032       N  0.91011072  0.18593952  0.93229740    -0.77400
C3033       C  0.90006696  0.16260135  0.94638000     0.83300
N3034       N  0.87695617  0.14823853  0.93540878    -0.77400
C3035       C  0.86363618  0.15744574  0.91116770     0.83400
N3036       N  0.87408857  0.18096658  0.89745484    -0.79100
C3037       C  0.65694483  0.41259603  0.86017967     0.80900
N3038       N  0.68004963  0.39822632  0.87115614    -0.77400
C3039       C  0.69336227  0.40742737  0.89540433     0.83300
N3040       N  0.68290782  0.43094710  0.90911814    -0.77400
C3041       C  0.66000987  0.44549738  0.89865739     0.83400
N3042       N  0.64689930  0.43593223  0.87426408    -0.79100
O3043       O  0.00087721  0.06581200  0.56117796    -0.87700
C3044       C  0.56974335  0.11629747  0.55051086     0.88400
Mg3045     Mg  0.99882884  0.03617719  0.59501586     1.58100
O3046       O  0.56424031  0.06034885  0.00137185    -0.87400
O3047       O  0.99880127  0.06540360  0.01407739    -0.74700
C3048       C  0.62695360  0.47671840  0.59759761     0.93400
O3049       O  0.54277133  0.09355850  0.60832626    -0.74500
O3050       O  0.60447929  0.47589283  0.61271304    -0.82100
Mg3051     Mg  0.01215264  0.10863394  0.57240876     1.58000
C3052       C  0.62762519  0.50954100  0.97873618     0.93300
O3053       O  0.97952376  0.12254907  0.53843762    -0.80300
H3054       H  0.54190615  0.03888208  0.97157887    -0.05700
C3055       C  0.61680246  0.04914274  0.56872569     0.88300
O3056       O  0.01273930  0.50016408  0.56434866    -0.74800
O3057       O  0.54672894  0.10521607  0.54289339    -0.87600
O3058       O  0.61986958  0.03571281  0.97867476    -0.80400
C3059       C  0.59748686  0.12745652  0.97737797     0.93400
C3060       C  0.97904178  0.13027020  0.01233457     0.93300
Mg3061     Mg  0.59399865  0.49837051  0.53563247     1.58000
O3062       O  0.62555246  0.48397906  0.57123426    -0.80300
O3063       O  0.56348787  0.51319916  0.99944055    -0.74600
O3064       O  0.57125113  0.12622094  0.98511632    -0.80400
O3065       O  0.97756197  0.11400206  0.60623725    -0.82100
O3066       O  0.53735781  0.47941341  0.62148762    -0.80400
C3067       C  0.55615617  0.03774078  0.98988783     0.87700
O3068       O  0.55989289  0.50105657  0.56489781    -0.87600
O3069       O  0.60493985  0.04144394  0.54612262    -0.87700
O3070       O  0.60763219  0.04159862  0.59327493    -0.74700
Mg3071     Mg  0.53538220  0.09514944  0.99966940     1.58000
O3072       O  0.61274855  0.10491966  0.97652327    -0.82100
H3073       H  0.97035837  0.04470082  0.53951773    -0.05800
O3074       O  0.54229931  0.04644428  0.60544262    -0.87400
H3075       H  0.56483912  0.06745290  0.63539286    -0.05700
H3076       H  0.53756596  0.47172790  0.54286125    -0.05800
C3077       C  0.55032832  0.06887925  0.61730511     0.87700
C3078       C  0.98905388  0.05834165  0.53851260     0.88300
C3079       C  0.53696940  0.49003409  0.55704489     0.88300
H3080       H  0.63509027  0.06331178  0.56757540    -0.05800
O3081       O  0.59396593  0.10679908  0.54224351    -0.74800
Mg3082     Mg  0.57141988  0.51139965  0.60795394     1.58000
H3083       H  0.56925066  0.13420645  0.56519858    -0.05800
C3084       C  0.97724610  0.09810513  0.62829742     0.93300
O3085       O  0.99575255  0.50135078  0.62887953    -0.82100
C3086       C  0.01130551  0.47888401  0.62911122     0.93400
O3087       O  0.00158504  0.13010628  0.99703890    -0.82100
Mg3088     Mg  0.60766083  0.07069316  0.01129720     1.58200
O3089       O  0.98438778  0.07165042  0.62672756    -0.80400
O3090       O  0.62854109  0.49482656  0.00170814    -0.82100
N3091       N  0.61089460  0.15535644  0.97532459    -0.02800
C3092       C  0.60185356  0.17838491  0.99053718    -0.00200
C3093       C  0.62003300  0.20136541  0.98746239    -0.23100
C3094       C  0.64133757  0.19257130  0.96960524    -0.23300
C3095       C  0.63560927  0.16432137  0.96238899    -0.00300
H3096       H  0.61818131  0.22217871  0.99753015     0.13500
H3097       H  0.65917431  0.20557768  0.96256539     0.13500
N3098       N  0.97447101  0.11095533  0.65631243    -0.02800
C3099       C  0.98938442  0.10163700  0.67944322    -0.00200
C3100       C  0.98569208  0.11935310  0.70268627    -0.23100
C3101       C  0.96771458  0.14070797  0.69383645    -0.23300
C3102       C  0.96114742  0.13542818  0.66531273    -0.00300
H3103       H  0.99550247  0.11723907  0.72365106     0.13500
H3104       H  0.96028788  0.15833857  0.70692046     0.13500
N3105       N  0.65466111  0.47641547  0.61160799    -0.02800
C3106       C  0.67712438  0.49255831  0.60278945    -0.00200
C3107       C  0.69939406  0.49156031  0.62224639    -0.23100
C3108       C  0.69072524  0.47387392  0.64391632    -0.23300
C3109       C  0.66327013  0.46469388  0.63711313    -0.00300
H3110       H  0.72000482  0.50204239  0.62050006     0.13500
H3111       H  0.70348582  0.46780483  0.66238199     0.13500
O3112       O  0.49275714  0.31037792  0.80519958    -0.87700
C3113       C  0.94018956  0.29916587  0.73783652     0.88400
Mg3114     Mg  0.52162204  0.34517423  0.80689794     1.58100
O3115       O  0.49709611  0.25107490  0.74166983    -0.87400
O3116       O  0.49350022  0.26322908  0.80713558    -0.74700
C3117       C  0.57975706  0.34810907  0.67826658     0.93400
O3118       O  0.96303465  0.35682715  0.76432345    -0.74500
O3119       O  0.57943427  0.36401169  0.70032274    -0.82100
Mg3120     Mg  0.94933643  0.32072507  0.79527291     1.58000
C3121       C  0.54568877  0.22888820  0.67745984     0.93300
O3122       O  0.93712155  0.28574540  0.82789759    -0.80300
H3123       H  0.51941982  0.22174525  0.76370834    -0.05700
C3124       C  0.50666765  0.31889305  0.68925883     0.88300
O3125       O  0.55819912  0.31542413  0.79248971    -0.74800
O3126       O  0.95205064  0.29146938  0.76044141    -0.87600
O3127       O  0.51963608  0.22941915  0.68508338    -0.80400
C3128       C  0.93003719  0.22672939  0.70896950     0.93400
C3129       C  0.92936079  0.25957549  0.82783661     0.93300
Mg3130     Mg  0.55816460  0.28618531  0.71154969     1.58000
O3131       O  0.57261360  0.32165519  0.67983977    -0.80300
O3132       O  0.54424947  0.25017578  0.74221843    -0.74600
O3133       O  0.93143927  0.23399613  0.73533142    -0.80400
O3134       O  0.94425321  0.35495668  0.83004570    -0.82100
O3135       O  0.57748103  0.37255974  0.76812535    -0.80400
C3136       C  0.52001833  0.24004995  0.74952363     0.87700
O3137       O  0.55611821  0.31582323  0.74538568    -0.87600
O3138       O  0.51469537  0.29645679  0.70112016    -0.87700
O3139       O  0.51422549  0.34357151  0.69823920    -0.74700
Mg3140     Mg  0.96298907  0.24839449  0.77093472     1.58000
O3141       O  0.95250955  0.22590855  0.69385087    -0.82100
H3142       H  0.51508529  0.28891045  0.83499648    -0.05800
O3143       O  0.51027148  0.35523657  0.76367300    -0.87400
H3144       H  0.98775357  0.38423402  0.74137208    -0.05700
H3145       H  0.58663452  0.29470804  0.76704577    -0.05800
C3146       C  0.98725854  0.36632279  0.75605750     0.87700
C3147       C  0.50083659  0.28776979  0.81668650     0.88300
C3148       C  0.56794102  0.30835182  0.76805089     0.88300
H3149       H  0.49215703  0.31746874  0.67117039    -0.05800
O3150       O  0.94936066  0.29161701  0.71328852    -0.74800
Mg3151     Mg  0.54484701  0.35864714  0.73415525     1.58000
H3152       H  0.92190173  0.31333553  0.73898395    -0.05800
C3153       C  0.95952351  0.37748809  0.82920095     0.93300
O3154       O  0.55542612  0.38012831  0.80952224    -0.82100
C3155       C  0.57796596  0.38029167  0.79422104     0.93400
O3156       O  0.92844476  0.24486080  0.80486443    -0.82100
Mg3157     Mg  0.48557275  0.26141287  0.69861140     1.58200
O3158       O  0.48575830  0.37624696  0.82146024    -0.80400
O3159       O  0.56124000  0.25135595  0.67768652    -0.82100
N3160       N  0.90232719  0.22640895  0.69496430    -0.02800
C3161       C  0.87985796  0.24254346  0.70378373    -0.00200
C3162       C  0.85758235  0.24152759  0.68433485    -0.23100
C3163       C  0.86625400  0.22383849  0.66266831    -0.23300
C3164       C  0.89371658  0.21467468  0.66946561    -0.00300
H3165       H  0.83696622  0.25199957  0.68608452     0.13500
H3166       H  0.85349066  0.21775690  0.64420868     0.13500
N3167       N  0.58254898  0.36095031  0.65024948    -0.02800
C3168       C  0.56765178  0.35162213  0.62711242    -0.00200
C3169       C  0.57136089  0.36932704  0.60386405    -0.23100
C3170       C  0.58933090  0.39068642  0.61271773    -0.23300
C3171       C  0.59587684  0.38542020  0.64124883    -0.00300
H3172       H  0.56156420  0.36720411  0.58289395     0.13500
H3173       H  0.59676564  0.40831191  0.59963174     0.13500
N3174       N  0.94612834  0.40539243  0.83127639    -0.02800
C3175       C  0.95517511  0.42842554  0.81607515    -0.00200
C3176       C  0.93701145  0.45141545  0.81917552    -0.23100
C3177       C  0.91570969  0.44262121  0.83703597    -0.23300
C3178       C  0.92142398  0.41436216  0.84422813    -0.00300
H3179       H  0.93887025  0.47223430  0.80912088     0.13500
H3180       H  0.89788288  0.45563280  0.84409269     0.13500
O3181       O  0.60292084  0.99642048  0.77493882    -0.87700
C3182       C  0.52294898  0.99309915  0.80898983     0.88400
Mg3183     Mg  0.61624262  0.03680449  0.75723578     1.58100
O3184       O  0.53168745  0.45428276  0.74568513    -0.87400
O3185       O  0.59494548  0.45063578  0.76658528    -0.74700
C3186       C  0.00953526  0.07775545  0.68017874     0.93400
O3187       O  0.56601131  0.04493047  0.80709649    -0.74500
O3188       O  0.53578903  0.08371081  0.68307340    -0.82100
Mg3189     Mg  0.58543389  0.00008978  0.81658923     1.58000
C3190       C  0.97662242  0.46019009  0.68089770     0.93300
O3191       O  0.60786438  0.45616227  0.82646726    -0.80300
H3192       H  0.55245274  0.42596671  0.72103635    -0.05700
C3193       C  0.99747167  0.03401106  0.74274333     0.88300
O3194       O  0.60670298  0.01779810  0.71179985    -0.74800
O3195       O  0.54595851  0.48324373  0.80017434    -0.87600
O3196       O  0.98005405  0.44903233  0.70549082    -0.80400
C3197       C  0.97936434  0.42953682  0.79631313     0.93400
C3198       C  0.59658206  0.43168833  0.83007526     0.93300
Mg3199     Mg  0.52069524  0.00748439  0.69067667     1.58000
O3200       O  0.00021333  0.05216597  0.68235738    -0.80300
O3201       O  0.54032283  0.46231455  0.70002710    -0.74600
O3202       O  0.50483203  0.43228302  0.80602454    -0.80400
O3203       O  0.62505444  0.02028211  0.83293592    -0.82100
O3204       O  0.60038632  0.07798975  0.69949645    -0.80400
C3205       C  0.54193215  0.44657186  0.72241782     0.87700
O3206       O  0.56078730  0.02578218  0.70423747    -0.87600
O3207       O  0.00629226  0.01108691  0.73261151    -0.87700
O3208       O  0.51230294  0.05695291  0.74162687    -0.74700
Mg3209     Mg  0.54969538  0.44112438  0.78593451     1.58000
O3210       O  0.97364701  0.43255893  0.76999809    -0.82100
H3211       H  0.63118936  0.47159676  0.75432915    -0.05800
O3212       O  0.57421396  0.05106799  0.76121800    -0.87400
H3213       H  0.55443262  0.08074264  0.78501187    -0.05700
H3214       H  0.58550669  0.00586873  0.67541841    -0.05800
C3215       C  0.56451351  0.05989500  0.78426933     0.87700
C3216       C  0.61062310  0.47306102  0.76480684     0.88300
C3217       C  0.58415811  0.01603544  0.69619466     0.88300
H3218       H  0.97672805  0.03452969  0.75293540    -0.05800
O3219       O  0.99995955  0.99149905  0.79414094    -0.74800
Mg3220     Mg  0.55677742  0.06734870  0.72211921     1.58000
H3221       H  0.52236803  0.00335967  0.82974826    -0.05800
C3222       C  0.62828934  0.04660809  0.82756731     0.93300
O3223       O  0.62745290  0.08020187  0.73765872    -0.82100
C3224       C  0.62499068  0.08158392  0.71067370     0.93400
O3225       O  0.56957728  0.42958122  0.82910430    -0.82100
Mg3226     Mg  0.99002931  0.47181499  0.74941698     1.58200
O3227       O  0.62544804  0.05657455  0.80225697    -0.80400
O3228       O  0.97771515  0.48720717  0.67866942    -0.82100
N3229       N  0.61370838  0.40624055  0.82623798    -0.02800
C3230       C  0.60615189  0.38471111  0.80810367    -0.00200
C3231       C  0.62782860  0.36478731  0.80596344    -0.23100
C3232       C  0.64935922  0.37377776  0.82390118    -0.23300
C3233       C  0.64037249  0.39915822  0.83641503    -0.00300
H3234       H  0.62751704  0.34517018  0.79358053     0.13500
H3235       H  0.66913133  0.36235637  0.82809400     0.13500
N3236       N  0.65029309  0.07814132  0.69333341    -0.02800
C3237       C  0.67225018  0.06047030  0.70086339    -0.00200
C3238       C  0.69197722  0.05835239  0.67914432    -0.23100
C3239       C  0.68247360  0.07581590  0.65756525    -0.23300
C3240       C  0.65697109  0.08807785  0.66653496    -0.00300
H3241       H  0.71175187  0.04621660  0.67941486     0.13500
H3242       H  0.69362591  0.07982655  0.63769361     0.13500
N3243       N  0.98037089  0.44287550  0.65549167    -0.02800
C3244       C  0.99792347  0.45063736  0.63369884    -0.00200
C3245       C  0.00042476  0.42890146  0.61389918    -0.23100
C3246       C  0.98329529  0.40703798  0.62318390    -0.23300
C3247       C  0.97086630  0.41591477  0.64858929    -0.00300
H3248       H  0.01255759  0.42935473  0.59420023     0.13500
H3249       H  0.97951192  0.38710928  0.61190938     0.13500
O3250       O  0.80968757  0.30654435  0.49238531    -0.87700
C3251       C  0.79799690  0.23802532  0.94175365     0.88400
Mg3252     Mg  0.84454295  0.30863189  0.52117455     1.58100
O3253       O  0.75020380  0.24294859  0.49854629    -0.87400
O3254       O  0.76252052  0.30833532  0.49339318    -0.74700
C3255       C  0.84798863  0.18077365  0.58040047     0.93400
O3256       O  0.85594064  0.26504276  0.96342771    -0.74500
O3257       O  0.86296981  0.20342365  0.58130032    -0.82100
Mg3258     Mg  0.81973447  0.29578249  0.94926176     1.58000
C3259       C  0.72899585  0.17939032  0.54954038     0.93300
O3260       O  0.78457797  0.32837143  0.93665840    -0.80300
H3261       H  0.72075067  0.26496370  0.52047965    -0.05700
C3262       C  0.81782970  0.19066878  0.50860490     0.88300
O3263       O  0.81475803  0.29478766  0.55788236    -0.74800
O3264       O  0.79051696  0.26091571  0.95306578    -0.87600
O3265       O  0.72826478  0.18719334  0.52340363    -0.80400
C3266       C  0.72607262  0.20943554  0.93157958     0.93400
C3267       C  0.75833361  0.32795689  0.92899757     0.93300
Mg3268     Mg  0.78580764  0.21331947  0.55980712     1.58000
O3269       O  0.82152894  0.18192300  0.57345180    -0.80300
O3270       O  0.74921026  0.24358177  0.54569821    -0.74600
O3271       O  0.73345057  0.23575045  0.93263915    -0.80400
O3272       O  0.85414854  0.33034571  0.94337338    -0.82100
O3273       O  0.87199109  0.27057904  0.57752135    -0.80400
C3274       C  0.73913556  0.25088085  0.52132461     0.87700
O3275       O  0.81495552  0.24764874  0.55669011    -0.87600
O3276       O  0.79543503  0.20252589  0.51658033    -0.87700
O3277       O  0.84254828  0.19986654  0.51585180    -0.74700
Mg3278     Mg  0.74753578  0.27166533  0.96367868     1.58000
O3279       O  0.72443481  0.19475780  0.95444054    -0.82100
H3280       H  0.78836569  0.33665035  0.51415666    -0.05800
O3281       O  0.85442445  0.26520605  0.51062835    -0.85800
H3282       H  0.88344379  0.24258070  0.98876593    -0.05700
H3283       H  0.79380329  0.26980932  0.58658296    -0.05800
C3284       C  0.86550231  0.25722015  0.98785705     0.87700
C3285       C  0.78712210  0.31809868  0.50032811     0.88300
C3286       C  0.80751312  0.27050534  0.56799799     0.88300
H3287       H  0.81633300  0.17235899  0.49448243    -0.05800
O3288       O  0.79013005  0.21367875  0.95134724    -0.74800
Mg3289     Mg  0.85776042  0.23627029  0.54575715     1.58000
H3290       H  0.81217203  0.23873751  0.92352549    -0.05800
C3291       C  0.87674210  0.32977348  0.95872891     0.93300
O3292       O  0.87956625  0.31180954  0.55500050    -0.82100
C3293       C  0.87990918  0.29660394  0.57767807     0.93400
O3294       O  0.74393744  0.30479831  0.92831572    -0.82100
Mg3295     Mg  0.76001416  0.19967552  0.48793246     1.58200
O3296       O  0.87558556  0.32253759  0.48513577    -0.80400
O3297       O  0.75231272  0.17845128  0.56377550    -0.82100
N3298       N  0.72667625  0.19503057  0.90411627    -0.02800
C3299       C  0.74325702  0.20369553  0.88186421    -0.00200
C3300       C  0.74282328  0.18397621  0.85992822    -0.23100
C3301       C  0.72508593  0.16234768  0.86846508    -0.23300
C3302       C  0.71524508  0.16939478  0.89553594    -0.00300
H3303       H  0.75362703  0.18558614  0.83952469     0.13500
H3304       H  0.71935039  0.14376171  0.85578958     0.13500
N3305       N  0.86219162  0.15328305  0.58008493    -0.02800
C3306       C  0.85344991  0.13095385  0.56359271    -0.00200
C3307       C  0.87320981  0.10904177  0.56403013    -0.23100
C3308       C  0.89491539  0.11774914  0.58180539    -0.23300
C3309       C  0.88783042  0.14488331  0.59159911    -0.00300
H3310       H  0.87160281  0.08858844  0.55319423     0.13500
H3311       H  0.91357624  0.10517794  0.58756686     0.13500
N3312       N  0.90461729  0.33149023  0.94536081    -0.02800
C3313       C  0.92755637  0.31610319  0.95455226    -0.00200
C3314       C  0.95052165  0.31892690  0.93644139    -0.23100
C3315       C  0.94184994  0.33685237  0.91504055    -0.23300
C3316       C  0.91367816  0.34436093  0.92065699    -0.00300
H3317       H  0.97126579  0.30871069  0.93845066     0.13500
H3318       H  0.95491438  0.34378290  0.89723781     0.13500
O3319       O  0.52532167  0.20426896  0.56089038    -0.87700
C3320       C  0.55954402  0.28399299  0.56381599     0.88400
Mg3321     Mg  0.50731681  0.19110984  0.52063932     1.58100
O3322       O  0.49623180  0.27577837  0.60232733    -0.87400
O3323       O  0.51668620  0.21231000  0.60654693    -0.74700
C3324       C  0.92872559  0.29659223  0.97899518     0.93400
O3325       O  0.55706211  0.24146809  0.51242935    -0.74500
O3326       O  0.93196959  0.27026726  0.97362641    -0.82100
Mg3327     Mg  0.56698247  0.22179312  0.55715951     1.58000
C3328       C  0.93203111  0.33158072  0.59590127     0.93300
O3329       O  0.57694872  0.19902111  0.60109112    -0.80300
H3330       H  0.97151413  0.25586868  0.63114974    -0.05700
C3331       C  0.49250771  0.30988686  0.52229834     0.88300
O3332       O  0.96206555  0.20063009  0.53998272    -0.74800
O3333       O  0.55072316  0.26107169  0.57395353    -0.87600
O3334       O  0.95663776  0.32798959  0.60707516    -0.80400
C3335       C  0.54749564  0.32774573  0.62637692     0.93400
C3336       C  0.58038301  0.21018347  0.62568169     0.93300
Mg3337     Mg  0.94077591  0.28680092  0.54933406     1.58000
O3338       O  0.93157168  0.30656842  0.50431269    -0.80300
O3339       O  0.95031559  0.26779575  0.59476904    -0.74600
O3340       O  0.55681210  0.30215450  0.62419864    -0.80400
O3341       O  0.58335703  0.18252637  0.53659361    -0.82100
O3342       O  0.94915641  0.20614990  0.98010006    -0.80400
C3343       C  0.97286136  0.26603373  0.61037269     0.87700
O3344       O  0.95409746  0.24641604  0.53163001    -0.87600
O3345       O  0.98280383  0.30106413  0.54534980    -0.87700
O3346       O  0.49101012  0.29491530  0.99946575    -0.74700
Mg3347     Mg  0.53632100  0.25747828  0.61588960     1.58000
O3348       O  0.52124229  0.33370617  0.62348744    -0.82100
H3349       H  0.50454945  0.17596162  0.58554221    -0.05800
O3350       O  0.51106341  0.23322526  0.00639573    -0.87400
H3351       H  0.53465895  0.25332201  0.97681393    -0.05700
H3352       H  0.92582315  0.22159725  0.55223485    -0.05800
C3353       C  0.53407510  0.24306983  0.99757622     0.87700
C3354       C  0.51507422  0.19656408  0.58415832     0.88300
C3355       C  0.94639099  0.22305802  0.54176002     0.88300
H3356       H  0.50258983  0.33073337  0.52155429    -0.05800
O3357       O  0.54471560  0.30693727  0.56493203    -0.74800
Mg3358     Mg  0.97158845  0.25007484  0.98997793     1.58000
H3359       H  0.58028559  0.28450716  0.55361959    -0.05800
C3360       C  0.57765328  0.17950093  0.01028569     0.93300
O3361       O  0.98744183  0.17956386  0.97747022    -0.82100
C3362       C  0.96043719  0.18167510  0.97649190     0.93400
O3363       O  0.57929707  0.23720074  0.62790442    -0.82100
Mg3364     Mg  0.50024507  0.31734357  0.58444576     1.58200
O3365       O  0.55219010  0.18225211  0.00056241    -0.80400
O3366       O  0.92956637  0.33019922  0.56891600    -0.82100
N3367       N  0.90673094  0.32813124  0.61324471    -0.02800
C3368       C  0.88477913  0.31045325  0.60571607    -0.00200
C3369       C  0.86505406  0.30832898  0.62743632    -0.23100
C3370       C  0.87455221  0.32579548  0.64901487    -0.23300
C3371       C  0.90004984  0.33806587  0.64004419    -0.00300
H3372       H  0.84528341  0.29618731  0.62716650     0.13500
H3373       H  0.86339893  0.32980242  0.66888700     0.13500
N3374       N  0.57663088  0.19287533  0.65109047    -0.02800
C3375       C  0.55907393  0.20064029  0.67287901    -0.00200
C3376       C  0.55657303  0.17890682  0.69268151    -0.23100
C3377       C  0.57370715  0.15704301  0.68340238    -0.23300
C3378       C  0.58613765  0.16591678  0.65799714    -0.00300
H3379       H  0.54443734  0.17936191  0.71237873     0.13500
H3380       H  0.57749170  0.13711611  0.69467972     0.13500
N3381       N  0.94330711  0.15622853  0.98031738    -0.02800
C3382       C  0.95086017  0.13469222  0.99844487    -0.00200
C3383       C  0.92918339  0.11476836  0.00057496    -0.23100
C3384       C  0.90765487  0.12376705  0.98263915    -0.23300
C3385       C  0.91664292  0.14915233  0.97013619    -0.00300
H3386       H  0.92949288  0.09514741  0.01295112     0.13500
H3387       H  0.88788224  0.11234860  0.97844146     0.13500
O3388       O  0.80553635  0.06532036  0.49735194    -0.87700
C3389       C  0.73682793  0.11644122  0.50776562     0.88400
Mg3390     Mg  0.80876977  0.03702530  0.96241145     1.58100
O3391       O  0.74163560  0.05934700  0.55565950    -0.87400
O3392       O  0.80687730  0.06450367  0.54450299    -0.74700
C3393       C  0.68086290  0.47794283  0.95687045     0.93400
O3394       O  0.76486887  0.09449446  0.94991072    -0.74500
O3395       O  0.70374551  0.47659213  0.94232757    -0.82100
Mg3396     Mg  0.79476621  0.10843087  0.48690842     1.58000
C3397       C  0.67944517  0.00820043  0.57561436     0.93300
O3398       O  0.82651113  0.12060069  0.52218353    -0.80300
H3399       H  0.76369880  0.03738155  0.58529847    -0.05700
C3400       C  0.69084875  0.04939427  0.98669161     0.88300
O3401       O  0.79482628  0.49986534  0.49178035    -0.74800
O3402       O  0.75948007  0.10468910  0.51542231    -0.87600
O3403       O  0.68680041  0.03439094  0.57640471    -0.80400
C3404       C  0.70715058  0.12564132  0.57977867     0.93400
C3405       C  0.82603118  0.12824993  0.54828040     0.93300
Mg3406     Mg  0.71307525  0.49824746  0.51937785     1.58000
O3407       O  0.68181889  0.48495385  0.48328330    -0.80300
O3408       O  0.74297584  0.51217750  0.55637873    -0.74600
O3409       O  0.73354239  0.12485130  0.57263837    -0.80400
O3410       O  0.83031759  0.11434383  0.95415130    -0.82100
O3411       O  0.77229462  0.48043577  0.93521262    -0.80400
C3412       C  0.74978891  0.03654421  0.56671389     0.87700
O3413       O  0.74771405  0.50133162  0.49091982    -0.87600
O3414       O  0.70247018  0.04151161  0.50936127    -0.87700
O3415       O  0.70026479  0.04198754  0.96218210    -0.74700
Mg3416     Mg  0.76992403  0.09414814  0.55867058     1.58000
O3417       O  0.69244487  0.10276940  0.58046274    -0.82100
H3418       H  0.83544695  0.04362131  0.51930976    -0.05800
O3419       O  0.76554760  0.04731029  0.95153572    -0.87400
H3420       H  0.74356309  0.06902424  0.92164601    -0.05700
H3421       H  0.76951164  0.47115458  0.51236020    -0.05800
C3422       C  0.75762610  0.07002294  0.94010763     0.87700
C3423       C  0.81686937  0.05743727  0.52014051     0.88300
C3424       C  0.77043182  0.48985062  0.49871375     0.88300
H3425       H  0.67250595  0.06350305  0.98775409    -0.05800
O3426       O  0.71233878  0.10693970  0.51516497    -0.74800
Mg3427     Mg  0.73693892  0.01205826  0.94788768     1.58000
H3428       H  0.73788005  0.13495967  0.49388393    -0.05800
C3429       C  0.82963656  0.09965114  0.93128039     0.93300
O3430       O  0.81261958  0.50433441  0.92682805    -0.82100
C3431       C  0.79841131  0.48107723  0.92757974     0.93400
O3432       O  0.80281320  0.12947677  0.56239386    -0.82100
Mg3433     Mg  0.69853880  0.06985428  0.54483572     1.58200
O3434       O  0.82255977  0.07325301  0.93195162    -0.80400
O3435       O  0.67804037  0.49429425  0.55221748    -0.82100
N3436       N  0.82999386  0.11406805  0.90390287    -0.02800
C3437       C  0.81397552  0.10543551  0.88101660    -0.00200
C3438       C  0.81516286  0.12519162  0.85916340    -0.23100
C3439       C  0.83280220  0.14673783  0.86846665    -0.23300
C3440       C  0.84186716  0.13968033  0.89593801    -0.00300
H3441       H  0.80492174  0.12368086  0.83834911     0.13500
H3442       H  0.83888666  0.16535760  0.85607866     0.13500
N3443       N  0.69278663  0.15313433  0.58037049    -0.02800
C3444       C  0.70170071  0.17615131  0.56488334    -0.00200
C3445       C  0.68215668  0.19818784  0.56612800    -0.23100
C3446       C  0.66033503  0.18889297  0.58318056    -0.23300
C3447       C  0.66703052  0.16125313  0.59184848    -0.00300
H3448       H  0.68391784  0.21906229  0.55616994     0.13500
H3449       H  0.64170999  0.20135487  0.58908157     0.13500
N3450       N  0.65343627  0.47850712  0.94226933    -0.02800
C3451       C  0.63089702  0.49476534  0.95099735    -0.00200
C3452       C  0.60917493  0.49452238  0.93089800    -0.23100
C3453       C  0.61815586  0.47721206  0.90904081    -0.23300
C3454       C  0.64527731  0.46741898  0.91629935    -0.00300
H3455       H  0.58861973  0.50515999  0.93238487     0.13500
H3456       H  0.60576994  0.47175280  0.89013532     0.13500
O3457       O  0.80927528  0.25132337  0.81565050    -0.87700
C3458       C  0.79936822  0.32000312  0.86646569     0.88400
Mg3459     Mg  0.84391266  0.24824258  0.78719081     1.58100
O3460       O  0.75145295  0.31530908  0.80921733    -0.87400
O3461       O  0.76216321  0.24985268  0.81479222    -0.74700
C3462       C  0.84984024  0.37563488  0.72679195     0.93400
O3463       O  0.85672532  0.29197659  0.84438211    -0.74500
O3464       O  0.86454199  0.35276037  0.72610047    -0.82100
Mg3465     Mg  0.82005704  0.26204390  0.85867902     1.58000
C3466       C  0.73095834  0.37825152  0.75829782     0.93300
O3467       O  0.78470750  0.23042157  0.87136299    -0.80300
H3468       H  0.72154230  0.29361240  0.78725771    -0.05700
C3469       C  0.82015976  0.36643261  0.79880164     0.88300
O3470       O  0.81400760  0.26216981  0.75019095    -0.74800
O3471       O  0.79144615  0.29729186  0.85503587    -0.87600
O3472       O  0.73047984  0.37059637  0.78439262    -0.80400
C3473       C  0.72736179  0.34963123  0.87529707     0.93400
C3474       C  0.75859191  0.23105975  0.87899914     0.93300
Mg3475     Mg  0.78706292  0.34414361  0.74789781     1.58000
O3476       O  0.82344823  0.37484726  0.73393303    -0.80300
O3477       O  0.75010957  0.31449868  0.76206569    -0.74600
O3478       O  0.73443837  0.32323294  0.87462603    -0.80400
O3479       O  0.85324985  0.22657922  0.86422990    -0.82100
O3480       O  0.87018181  0.28438264  0.73015904    -0.80400
C3481       C  0.74011941  0.30742828  0.78642798     0.87700
O3482       O  0.81534976  0.30934027  0.75090329    -0.87600
O3483       O  0.79750843  0.35467870  0.79114685    -0.87700
O3484       O  0.84464881  0.35693337  0.79139881    -0.74700
Mg3485     Mg  0.74822440  0.28700726  0.84416175     1.58000
O3486       O  0.72667762  0.36432291  0.85242600    -0.82100
H3487       H  0.78748027  0.22114178  0.79421424    -0.05800
O3488       O  0.85451233  0.29150808  0.79720285    -0.87400
H3489       H  0.88447678  0.31349795  0.81880840    -0.05700
H3490       H  0.79328165  0.28737108  0.72127065    -0.05800
C3491       C  0.86613664  0.29938670  0.81987219     0.87700
C3492       C  0.78655848  0.23983916  0.80785898     0.88300
C3493       C  0.80719433  0.28653586  0.73985339     0.88300
H3494       H  0.81910710  0.38495067  0.81268408    -0.05800
O3495       O  0.79212639  0.34447534  0.85666419    -0.74800
Mg3496     Mg  0.85844635  0.31984713  0.76172747     1.58000
H3497       H  0.81343181  0.31900250  0.88492664    -0.05800
C3498       C  0.87613419  0.22794251  0.84969154     0.93300
O3499       O  0.87894661  0.24429130  0.75435344    -0.82100
C3500       C  0.87753817  0.25819262  0.73095434     0.93400
O3501       O  0.74437688  0.25431353  0.87974404    -0.82100
Mg3502     Mg  0.76222434  0.35841916  0.81966282     1.58200
O3503       O  0.87517535  0.23495790  0.82328339    -0.80400
O3504       O  0.75417449  0.37947487  0.74418104    -0.82100
N3505       N  0.86420933  0.40312543  0.72620937    -0.02800
C3506       C  0.85530057  0.42613865  0.74170664    -0.00200
C3507       C  0.87484764  0.44817228  0.74046766    -0.23100
C3508       C  0.89666608  0.43887982  0.72340974    -0.23300
C3509       C  0.88996644  0.41124391  0.71473250    -0.00300
H3510       H  0.87309095  0.46904356  0.75043348     0.13500
H3511       H  0.91529276  0.45134051  0.71751284     0.13500
N3512       N  0.72700597  0.36404976  0.90267354    -0.02800
C3513       C  0.74302830  0.35542159  0.92555901    -0.00200
C3514       C  0.74183841  0.37517900  0.94741111    -0.23100
C3515       C  0.72419462  0.39672170  0.93810757    -0.23300
C3516       C  0.71512967  0.38966137  0.91063684    -0.00300
H3517       H  0.75208153  0.37367164  0.96822488     0.13500
H3518       H  0.71810863  0.41534232  0.95049431     0.13500
N3519       N  0.90355718  0.22852551  0.86429870    -0.02800
C3520       C  0.92608747  0.24479993  0.85557690    -0.00200
C3521       C  0.94780279  0.24457227  0.87568396    -0.23100
C3522       C  0.93882773  0.22725536  0.89753841    -0.23300
C3523       C  0.91171586  0.21744289  0.89027162    -0.00300
H3524       H  0.96835059  0.25522402  0.87420374     0.13500
H3525       H  0.95121169  0.22180554  0.91644811     0.13500
O3526       O  0.74206455  0.99765458  0.74989682    -0.87700
C3527       C  0.69151303  0.00722859  0.81872408     0.88400
Mg3528     Mg  0.77120355  0.46331671  0.74678576     1.58100
O3529       O  0.74733519  0.05655283  0.81419883    -0.87400
O3530       O  0.74227103  0.04479383  0.74870326    -0.74700
C3531       C  0.83093936  0.45944477  0.87500904     0.93400
O3532       O  0.71446054  0.44987790  0.79073424    -0.74500
O3533       O  0.83257404  0.44476075  0.85215119    -0.82100
Mg3534     Mg  0.69925684  0.98628494  0.76082553     1.58000
C3535       C  0.79867597  0.07796808  0.87757910     0.93300
O3536       O  0.68503578  0.02059545  0.72905873    -0.80300
H3537       H  0.76865882  0.08665654  0.79242733    -0.05700
C3538       C  0.75901694  0.48803451  0.86483145     0.88300
O3539       O  0.80780810  0.99357240  0.76089337    -0.74800
O3540       O  0.70259759  0.01521903  0.79595386    -0.87600
O3541       O  0.77243088  0.07837859  0.86992153    -0.80400
C3542       C  0.68027088  0.07977885  0.84784938     0.93400
C3543       C  0.67712042  0.04662119  0.72890110     0.93300
Mg3544     Mg  0.80947847  0.02167114  0.84290245     1.58000
O3545       O  0.82356393  0.98576014  0.87394445    -0.80300
O3546       O  0.79450232  0.05834059  0.81319153    -0.74600
O3547       O  0.68143653  0.07254775  0.82144043    -0.80400
O3548       O  0.69403952  0.45344030  0.72528104    -0.82100
O3549       O  0.82874315  0.43718675  0.78319028    -0.80400
C3550       C  0.76990131  0.06810556  0.80625641     0.87700
O3551       O  0.80681335  0.99294984  0.80804539    -0.87600
O3552       O  0.76649762  0.01092315  0.85351720    -0.87700
O3553       O  0.76688209  0.46368638  0.85523979    -0.74700
Mg3554     Mg  0.71248293  0.05864317  0.78540688     1.58000
O3555       O  0.70286177  0.08034808  0.86320875    -0.82100
H3556       H  0.76322569  0.01980967  0.72000701    -0.05800
O3557       O  0.76157399  0.45253157  0.79001399    -0.87400
H3558       H  0.74066952  0.42236782  0.81210960    -0.05700
H3559       H  0.83627088  0.01495415  0.78610822    -0.05800
C3560       C  0.73917699  0.44067767  0.79798648     0.87700
C3561       C  0.74951321  0.02050936  0.73858963     0.88300
C3562       C  0.81788338  0.00087525  0.78526575     0.88300
H3563       H  0.74484188  0.48874969  0.88305939    -0.05800
O3564       O  0.70107495  0.01504841  0.84315402    -0.74800
Mg3565     Mg  0.79699601  0.44967913  0.81866328     1.58000
H3566       H  0.67357254  0.99258815  0.81781391    -0.05800
C3567       C  0.70901335  0.43078560  0.72618565     0.93300
O3568       O  0.80468843  0.42843793  0.74282393    -0.82100
C3569       C  0.82800780  0.42937847  0.75705472     0.93400
O3570       O  0.67746272  0.06182679  0.75157856    -0.82100
Mg3571     Mg  0.73727866  0.04578847  0.85732014     1.58200
O3572       O  0.73547212  0.43192800  0.73314042    -0.80400
O3573       O  0.81307676  0.05481172  0.87826003    -0.82100
N3574       N  0.69480153  0.40329939  0.72650063    -0.02800
C3575       C  0.70353815  0.38096685  0.74299124    -0.00200
C3576       C  0.68377169  0.35906149  0.74255689    -0.23100
C3577       C  0.66206705  0.36777536  0.72478452    -0.23300
C3578       C  0.66915907  0.39490671  0.71498846    -0.00300
H3579       H  0.68537422  0.33860762  0.75339198     0.13500
H3580       H  0.64340266  0.35520888  0.71902497     0.13500
N3581       N  0.65239333  0.08149809  0.86121180    -0.02800
C3582       C  0.62945279  0.06612009  0.85201010    -0.00200
C3583       C  0.60648342  0.06894640  0.87011577    -0.23100
C3584       C  0.61515508  0.08686280  0.89152475    -0.23300
C3585       C  0.64333066  0.09436307  0.88591791    -0.00300
H3586       H  0.58573786  0.05873502  0.86809958     0.13500
H3587       H  0.60208888  0.09379134  0.90932750     0.13500
N3588       N  0.83033840  0.44504762  0.90247634    -0.02800
C3589       C  0.81375519  0.45371590  0.92472536    -0.00200
C3590       C  0.81419594  0.43400413  0.94666817    -0.23100
C3591       C  0.83193943  0.41237678  0.93813765    -0.23300
C3592       C  0.84177631  0.41941723  0.91106401    -0.00300
H3593       H  0.80339245  0.43561837  0.96707115     0.13500
H3594       H  0.83768123  0.39379620  0.95081864     0.13500
C3595       C  0.65400658  0.14898727  0.94178080     0.80900
N3596       N  0.67823038  0.16223775  0.93241216    -0.77400
C3597       C  0.69280319  0.15202591  0.90956648     0.83300
N3598       N  0.68243474  0.12868451  0.89536281    -0.77400
C3599       C  0.65834753  0.11531579  0.90431877     0.83400
N3600       N  0.64412311  0.12579716  0.92746605    -0.79100
C3601       C  0.89867249  0.86532585  0.40226612     0.80900
N3602       N  0.87458512  0.87869344  0.41122521    -0.77400
C3603       C  0.86421883  0.90203959  0.39702742     0.83300
N3604       N  0.87879385  0.91225748  0.37418605    -0.77400
C3605       C  0.90301793  0.89900910  0.36481511     0.83400
N3606       N  0.91289916  0.87581383  0.37912315    -0.79100
C3607       C  0.65195962  0.90923400  0.19245752     0.80900
N3608       N  0.66176355  0.93289755  0.17877404    -0.77400
C3609       C  0.64858764  0.94271724  0.15455964     0.83300
N3610       N  0.62608195  0.92792548  0.14369352    -0.77400
C3611       C  0.61605604  0.90403752  0.15704373     0.83400
N3612       N  0.62921406  0.89474916  0.18120869    -0.79100
C3613       C  0.91380627  0.86132664  0.15710108     0.80900
N3614       N  0.93785690  0.87495488  0.14816936    -0.77400
C3615       C  0.94766708  0.89886399  0.16204920     0.83300
N3616       N  0.93264476  0.90930479  0.18452180    -0.77400
C3617       C  0.90839456  0.89596939  0.19379680     0.83400
N3618       N  0.89907037  0.87224079  0.17981766    -0.79100
C3619       C  0.60935400  0.64888123  0.14454552     0.80900
N3620       N  0.61916830  0.62497190  0.15842230    -0.77400
C3621       C  0.64321866  0.61134580  0.14948461     0.83300
N3622       N  0.65794937  0.62226258  0.12676679    -0.77400
C3623       C  0.64862117  0.64599158  0.11279163     0.83400
N3624       N  0.62437182  0.65932471  0.12207149    -0.79100
C3625       C  0.94096340  0.65403056  0.14953149     0.80900
N3626       N  0.93093466  0.67791627  0.16288550    -0.77400
C3627       C  0.90841883  0.69269948  0.15202784     0.83300
N3628       N  0.89523765  0.68287419  0.12781890    -0.77400
C3629       C  0.90504342  0.65921307  0.11413281     0.83400
N3630       N  0.92779784  0.64473570  0.12537302    -0.79100
C3631       C  0.89699265  0.69551221  0.40792279     0.80900
N3632       N  0.91010475  0.68594454  0.43231442    -0.77400
C3633       C  0.90006202  0.66260473  0.44639463     0.83300
N3634       N  0.87695894  0.64823472  0.43541637    -0.77400
C3635       C  0.86364558  0.65743726  0.41116983     0.83400
N3636       N  0.87409712  0.68095998  0.39745953    -0.79100
C3637       C  0.65694768  0.91258729  0.36018690     0.80900
N3638       N  0.68005233  0.89821832  0.37116450    -0.77400
C3639       C  0.69336620  0.90742217  0.39541098     0.83300
N3640       N  0.68291265  0.93094375  0.40912241    -0.77400
C3641       C  0.66001503  0.94549365  0.39866000     0.83400
N3642       N  0.64690371  0.93592585  0.37426821    -0.79100
O3643       O  0.00087949  0.56580813  0.06118192    -0.87700
C3644       C  0.56974334  0.61629407  0.05051296     0.88400
Mg3645     Mg  0.99883449  0.53617731  0.09502403     1.58100
O3646       O  0.56423655  0.56035454  0.50136627    -0.87400
O3647       O  0.99879632  0.56541255  0.51407421    -0.74700
C3648       C  0.62695997  0.97672075  0.09760373     0.93400
O3649       O  0.54277188  0.59356192  0.10832727    -0.74500
O3650       O  0.60448712  0.97589851  0.11272167    -0.82100
Mg3651     Mg  0.01215141  0.60863192  0.07240782     1.58000
C3652       C  0.62762600  0.00954565  0.47873099     0.93300
O3653       O  0.97952097  0.62254042  0.03843116    -0.80300
H3654       H  0.54190243  0.53888886  0.47157219    -0.05700
C3655       C  0.61680749  0.54914191  0.06872881     0.88300
O3656       O  0.01274444  0.00016111  0.06436007    -0.74800
O3657       O  0.54672910  0.60521285  0.04289457    -0.87600
O3658       O  0.61986735  0.53571670  0.47866882    -0.80400
C3659       C  0.59748447  0.62746073  0.47737302     0.93400
C3660       C  0.97904082  0.63028175  0.51234328     0.93300
Mg3661     Mg  0.59400227  0.99836777  0.03563972     1.58000
O3662       O  0.62555704  0.98397836  0.07123979    -0.80300
O3663       O  0.56348626  0.01320488  0.49943317    -0.74600
O3664       O  0.57124899  0.62622496  0.48511237    -0.80400
O3665       O  0.97756177  0.61400086  0.10623845    -0.82100
O3666       O  0.53736576  0.97941726  0.12149737    -0.80400
C3667       C  0.55615264  0.53774689  0.48988142     0.87700
O3668       O  0.55989808  0.00105624  0.06490668    -0.87600
O3669       O  0.60494345  0.54144138  0.04612713    -0.87700
O3670       O  0.60763806  0.54160064  0.09327917    -0.74700
Mg3671     Mg  0.53537862  0.59515671  0.49966784     1.58000
O3672       O  0.61274729  0.60492453  0.47651991    -0.82100
H3673       H  0.97036314  0.54469222  0.03952238    -0.05800
O3674       O  0.54230495  0.54644751  0.10544718    -0.87400
H3675       H  0.56484308  0.56746074  0.13539568    -0.05700
H3676       H  0.53757172  0.97172394  0.04287484    -0.05800
C3677       C  0.55033205  0.56888418  0.11730776     0.87700
C3678       C  0.98905777  0.55833470  0.03851673     0.88300
C3679       C  0.53697477  0.99003160  0.05705612     0.88300
H3680       H  0.63509556  0.56331027  0.06757615    -0.05800
O3681       O  0.59396634  0.60679550  0.04224694    -0.74800
Mg3682     Mg  0.57142650  0.01140368  0.10796134     1.58000
H3683       H  0.56925015  0.63420342  0.06520046    -0.05800
C3684       C  0.97725206  0.59810720  0.12830141     0.93300
O3685       O  0.99576151  0.00135507  0.12889181    -0.82100
C3686       C  0.01131384  0.97888793  0.12912195     0.93400
O3687       O  0.00158113  0.63011617  0.49704294    -0.82100
Mg3688     Mg  0.60765813  0.57069663  0.51129244     1.58200
O3689       O  0.98439627  0.57165314  0.12673381    -0.80400
O3690       O  0.62854027  0.99483086  0.50170282    -0.82100
N3691       N  0.61088980  0.65536127  0.47531500    -0.02800
C3692       C  0.60184604  0.67839085  0.49052435    -0.00200
C3693       C  0.62002132  0.70137390  0.48744405    -0.23100
C3694       C  0.64132654  0.69257967  0.46958758    -0.23300
C3695       C  0.63560307  0.66432727  0.46237735    -0.00300
H3696       H  0.61816742  0.72218850  0.49750847     0.13500
H3697       H  0.65916143  0.70558721  0.46254510     0.13500
N3698       N  0.97447917  0.61096045  0.15631554    -0.02800
C3699       C  0.98939180  0.60164327  0.17944774    -0.00200
C3700       C  0.98570032  0.61936177  0.20268903    -0.23100
C3701       C  0.96772444  0.64071688  0.19383717    -0.23300
C3702       C  0.96115700  0.63543493  0.16531382    -0.00300
H3703       H  0.99551021  0.61724858  0.22365408     0.13500
H3704       H  0.96029833  0.65834892  0.20692003     0.13500
N3705       N  0.65466884  0.97641703  0.11161098    -0.02800
C3706       C  0.67713218  0.99255765  0.10278896    -0.00200
C3707       C  0.69940396  0.99155905  0.12224355    -0.23100
C3708       C  0.69073617  0.97387438  0.14391547    -0.23300
C3709       C  0.66327963  0.96469615  0.13711556    -0.00300
H3710       H  0.72001532  0.00204006  0.12049465     0.13500
H3711       H  0.70349829  0.96780483  0.16237978     0.13500
O3712       O  0.49276575  0.81037250  0.30520171    -0.87700
C3713       C  0.94019067  0.79916002  0.23784709     0.88400
Mg3714     Mg  0.52162769  0.84517084  0.30689808     1.58100
O3715       O  0.49710399  0.75107730  0.24167090    -0.87400
O3716       O  0.49351433  0.76322414  0.30713853    -0.74700
C3717       C  0.57975700  0.84811867  0.17826489     0.93400
O3718       O  0.96303812  0.85681850  0.26432839    -0.74500
O3719       O  0.57943868  0.86401761  0.20032386    -0.82100
Mg3720     Mg  0.94934360  0.82071701  0.29528074     1.58000
C3721       C  0.54569044  0.72890071  0.17745466     0.93300
O3722       O  0.93713154  0.78573714  0.32790673    -0.80300
H3723       H  0.51943228  0.72174586  0.26370285    -0.05700
C3724       C  0.50666934  0.81890050  0.18925877     0.88300
O3725       O  0.55820539  0.81542234  0.29248686    -0.74800
O3726       O  0.95205418  0.79146207  0.26045025    -0.87600
O3727       O  0.51963905  0.72942875  0.18508216    -0.80400
C3728       C  0.93004477  0.72672604  0.20897726     0.93400
C3729       C  0.92937427  0.75956616  0.32784814     0.93300
Mg3730     Mg  0.55816677  0.78619285  0.21154350     1.58000
O3731       O  0.57261135  0.82166536  0.17983493    -0.80300
O3732       O  0.54425728  0.75017917  0.24221052    -0.74600
O3733       O  0.93144859  0.73398853  0.23534035    -0.80400
O3734       O  0.94426334  0.85494680  0.33005417    -0.82100
O3735       O  0.57748664  0.87255674  0.26812804    -0.80400
C3736       C  0.52002781  0.74005240  0.24951950     0.87700
O3737       O  0.55612354  0.81582575  0.24538282    -0.87600
O3738       O  0.51469596  0.79646449  0.20112151    -0.87700
O3739       O  0.51422907  0.84357883  0.19823827    -0.74700
Mg3740     Mg  0.96300104  0.74838855  0.27094074     1.58000
O3741       O  0.95251541  0.72591082  0.19385575    -0.82100
H3742       H  0.51509801  0.78890812  0.33499803    -0.05800
O3743       O  0.51027535  0.85523349  0.26367379    -0.87400
H3744       H  0.98775174  0.88422547  0.24137178    -0.05700
H3745       H  0.58664046  0.79470851  0.26704042    -0.05800
C3746       C  0.98726024  0.86631603  0.25605898     0.87700
C3747       C  0.50084832  0.78776564  0.31668865     0.88300
C3748       C  0.56794667  0.80835218  0.26804714     0.88300
H3749       H  0.49215972  0.81747623  0.17117018    -0.05800
O3750       O  0.94936157  0.79161668  0.21329736    -0.74800
Mg3751     Mg  0.54485127  0.85864971  0.23415625     1.58000
H3752       H  0.92190136  0.81332755  0.23899766    -0.05800
C3753       C  0.95952888  0.87748098  0.32920255     0.93300
O3754       O  0.55542836  0.88012642  0.30952246    -0.82100
C3755       C  0.57796994  0.88028719  0.29422415     0.93400
O3756       O  0.92846276  0.74484794  0.30487774    -0.82100
Mg3757     Mg  0.48557500  0.76141813  0.19861444     1.58200
O3758       O  0.48576295  0.87624285  0.32145935    -0.80400
O3759       O  0.56123809  0.75137062  0.17767588    -0.82100
N3760       N  0.90233334  0.72640401  0.19497496    -0.02800
C3761       C  0.87986345  0.74253499  0.20379854    -0.00200
C3762       C  0.85758558  0.74151835  0.18435236    -0.23100
C3763       C  0.86625676  0.72383311  0.16268258    -0.23300
C3764       C  0.89372119  0.71467222  0.16947555    -0.00300
H3765       H  0.83696912  0.75198865  0.18610533     0.13500
H3766       H  0.85349207  0.71775229  0.14422346     0.13500
N3767       N  0.58254706  0.86096405  0.15024956    -0.02800
C3768       C  0.56764804  0.85164071  0.12711142    -0.00200
C3769       C  0.57135533  0.86935088  0.10386680    -0.23100
C3770       C  0.58932673  0.89070764  0.11272351    -0.23300
C3771       C  0.59587557  0.88543489  0.14125279    -0.00300
H3772       H  0.56155749  0.86723237  0.08289660     0.13500
H3773       H  0.59676110  0.90833541  0.09964035     0.13500
N3774       N  0.94612711  0.90538289  0.33126868    -0.02800
C3775       C  0.95517075  0.92841483  0.31606350    -0.00200
C3776       C  0.93699689  0.95139865  0.31915059    -0.23100
C3777       C  0.91569347  0.94260264  0.33700817    -0.23300
C3778       C  0.92141673  0.91434840  0.34421211    -0.00300
H3779       H  0.93885060  0.97221522  0.30908987     0.13500
H3780       H  0.89786027  0.95561006  0.34405589     0.13500
O3781       O  0.60292751  0.49641567  0.27494232    -0.87700
C3782       C  0.52295528  0.49309251  0.30899829     0.88400
Mg3783     Mg  0.61625271  0.53680052  0.25724070     1.58100
O3784       O  0.53169381  0.95428318  0.24568983    -0.87400
O3785       O  0.59495066  0.95063175  0.26659051    -0.74700
C3786       C  0.00954172  0.57776072  0.18018732     0.93400
O3787       O  0.56602352  0.54492550  0.30710453    -0.74500
O3788       O  0.53579533  0.58371584  0.18308493    -0.82100
Mg3789     Mg  0.58544269  0.50008297  0.31659399     1.58000
C3790       C  0.97662713  0.96019298  0.18090443     0.93300
O3791       O  0.60787023  0.95615419  0.32647055    -0.80300
H3792       H  0.55246036  0.92597022  0.22103900    -0.05700
C3793       C  0.99748147  0.53401258  0.24275574     0.88300
O3794       O  0.60670941  0.51779892  0.21180398    -0.74800
O3795       O  0.54596489  0.98323938  0.30018132    -0.87600
O3796       O  0.98006090  0.94903495  0.20549673    -0.80400
C3797       C  0.97936627  0.92952985  0.29630893     0.93400
C3798       C  0.59658648  0.93168102  0.33007952     0.93300
Mg3799     Mg  0.52070056  0.50748856  0.19068507     1.58000
O3800       O  0.00021899  0.55217147  0.18236690    -0.80300
O3801       O  0.54032883  0.96231897  0.20003242    -0.74600
O3802       O  0.50483206  0.93227678  0.30602623    -0.80400
O3803       O  0.62506683  0.52027076  0.33293878    -0.82100
O3804       O  0.60039483  0.57799416  0.19950436    -0.80400
C3805       C  0.54193894  0.94657450  0.22242193     0.87700
O3806       O  0.56079367  0.52578566  0.20424472    -0.87600
O3807       O  0.00630020  0.51108871  0.23262140    -0.87700
O3808       O  0.51231312  0.55695418  0.24163924    -0.74700
Mg3809     Mg  0.54969955  0.94112072  0.28593889     1.58000
O3810       O  0.97365509  0.93255456  0.26999329    -0.82100
H3811       H  0.63119481  0.97159168  0.25433351    -0.05800
O3812       O  0.57422561  0.55106806  0.26122641    -0.87400
H3813       H  0.55444702  0.58074104  0.28502451    -0.05700
H3814       H  0.58551088  0.50587424  0.17542233    -0.05800
C3815       C  0.56452650  0.55989299  0.28427919     0.87700
C3816       C  0.61062886  0.97305663  0.26481103     0.88300
C3817       C  0.58416372  0.51603894  0.19619978     0.88300
H3818       H  0.97673926  0.53453112  0.25295012    -0.05800
O3819       O  0.99996552  0.49149294  0.29414983    -0.74800
Mg3820     Mg  0.55678639  0.56735119  0.22212927     1.58000
H3821       H  0.52237438  0.50335056  0.32975805    -0.05800
C3822       C  0.62830573  0.54659666  0.32757238     0.93300
O3823       O  0.62746524  0.58019905  0.23766474    -0.82100
C3824       C  0.62500040  0.58158595  0.21067999     0.93400
O3825       O  0.56958141  0.92957521  0.32910866    -0.82100
Mg3826     Mg  0.99003622  0.97181476  0.24942260     1.58200
O3827       O  0.62546381  0.55656588  0.30226320    -0.80400
O3828       O  0.97771911  0.98721031  0.17867720    -0.82100
N3829       N  0.61371163  0.90623201  0.32624459    -0.02800
C3830       C  0.60615462  0.88470262  0.30811061    -0.00200
C3831       C  0.62782920  0.86477614  0.30597361    -0.23100
C3832       C  0.64935931  0.87376529  0.32391276    -0.23300
C3833       C  0.64037449  0.89914778  0.33642389    -0.00300
H3834       H  0.62751635  0.84515846  0.29359175     0.13500
H3835       H  0.66913037  0.86234231  0.32810752     0.13500
N3836       N  0.65030166  0.57814756  0.19333672    -0.02800
C3837       C  0.67225993  0.56047607  0.20086263    -0.00200
C3838       C  0.69198582  0.55836172  0.17914238    -0.23100
C3839       C  0.68248055  0.57582767  0.15756634    -0.23300
C3840       C  0.65697807  0.58808795  0.16653894    -0.00300
H3841       H  0.71176085  0.54622661  0.17941047     0.13500
H3842       H  0.69363209  0.57984091  0.13769463     0.13500
N3843       N  0.98037637  0.94287870  0.15549819    -0.02800
C3844       C  0.99793127  0.95064112  0.13370748    -0.00200
C3845       C  0.00043513  0.92890551  0.11390798    -0.23100
C3846       C  0.98330507  0.90704153  0.12319032    -0.23300
C3847       C  0.97087293  0.91591748  0.14859436    -0.00300
H3848       H  0.01257084  0.92935923  0.09421061     0.13500
H3849       H  0.97952362  0.88711272  0.11191514     0.13500
O3850       O  0.80967940  0.80654659  0.99238334    -0.87700
C3851       C  0.79800067  0.73801953  0.44176144     0.88400
Mg3852     Mg  0.84453447  0.80863393  0.02117417     1.58100
O3853       O  0.75020096  0.74294916  0.99853974    -0.87400
O3854       O  0.76251242  0.80833807  0.99338708    -0.74700
C3855       C  0.84799088  0.68077443  0.08040067     0.93400
O3856       O  0.85594699  0.76503646  0.46342865    -0.74500
O3857       O  0.86297141  0.70342489  0.08129948    -0.82100
Mg3858     Mg  0.81974039  0.79577640  0.44926359     1.58000
C3859       C  0.72899711  0.67938599  0.04953126     0.93300
O3860       O  0.78458453  0.82836714  0.43666245    -0.80300
H3861       H  0.72074762  0.76496118  0.02047537    -0.05700
C3862       C  0.81783029  0.69067009  0.00860087     0.88300
O3863       O  0.81474833  0.79478746  0.05788029    -0.74800
O3864       O  0.79052179  0.76091082  0.45307265    -0.87600
O3865       O  0.72826532  0.68719206  0.02339549    -0.80400
C3866       C  0.72607615  0.70943416  0.43158661     0.93400
C3867       C  0.75833959  0.82795338  0.42900363     0.93300
Mg3868     Mg  0.78580616  0.71331644  0.05980174     1.58000
O3869       O  0.82153153  0.68192280  0.07344911    -0.80300
O3870       O  0.74920707  0.74357722  0.04569192    -0.74600
O3871       O  0.73345517  0.73574871  0.43264626    -0.80400
O3872       O  0.85415721  0.83033648  0.44336868    -0.82100
O3873       O  0.87198623  0.77058177  0.07752144    -0.80400
C3874       C  0.73913246  0.75087911  0.02131891     0.87700
O3875       O  0.81495123  0.74764814  0.05668989    -0.87600
O3876       O  0.79543532  0.70252793  0.01657406    -0.87700
O3877       O  0.84254829  0.69986742  0.01585042    -0.74700
Mg3878     Mg  0.74754114  0.77166308  0.46368514     1.58000
O3879       O  0.72443512  0.69475720  0.45444791    -0.82100
H3880       H  0.78835602  0.83665331  0.01415241    -0.05800
O3881       O  0.85441701  0.76520852  0.01062798    -0.85800
H3882       H  0.88345160  0.74257686  0.48876786    -0.05700
H3883       H  0.79379473  0.76980771  0.08658040    -0.05800
C3884       C  0.86550966  0.75721603  0.48785821     0.87700
C3885       C  0.78711346  0.81810125  0.00032418     0.88300
C3886       C  0.80750556  0.77050453  0.06799637     0.88300
H3887       H  0.81633451  0.67235997  0.99447872    -0.05800
O3888       O  0.79013150  0.71367374  0.45135519    -0.74800
Mg3889     Mg  0.85775706  0.73627254  0.04575659     1.58000
H3890       H  0.81217677  0.73873020  0.42353432    -0.05800
C3891       C  0.87674903  0.82977024  0.45872709     0.93300
O3892       O  0.87955662  0.81181332  0.05500113    -0.82100
C3893       C  0.87990308  0.79660708  0.07767807     0.93400
O3894       O  0.74394309  0.80479511  0.42832207    -0.82100
Mg3895     Mg  0.76001433  0.69967696  0.98792495     1.58200
O3896       O  0.87558033  0.82253844  0.98513708    -0.80400
O3897       O  0.75231473  0.67844426  0.06376492    -0.82100
N3898       N  0.72668393  0.69502834  0.40412384    -0.02800
C3899       C  0.74326743  0.70369302  0.38187377    -0.00200
C3900       C  0.74283806  0.68397230  0.35993903    -0.23100
C3901       C  0.72510053  0.66234327  0.36847444    -0.23300
C3902       C  0.71525519  0.66939160  0.39554320    -0.00300
H3903       H  0.75364472  0.68558186  0.33953740     0.13500
H3904       H  0.71936747  0.64375648  0.35579871     0.13500
N3905       N  0.86219437  0.65328356  0.08009064    -0.02800
C3906       C  0.85345239  0.63095172  0.06360224    -0.00200
C3907       C  0.87321122  0.60903880  0.06404360    -0.23100
C3908       C  0.89491696  0.61774843  0.08181731    -0.23300
C3909       C  0.88783315  0.64488466  0.09160634    -0.00300
H3910       H  0.87160344  0.58858387  0.05321120     0.13500
H3911       H  0.91357753  0.60517725  0.08758075     0.13500
N3912       N  0.90462596  0.83149487  0.44536344    -0.02800
C3913       C  0.92756790  0.81611631  0.45456116    -0.00200
C3914       C  0.95053715  0.81894755  0.43645659    -0.23100
C3915       C  0.94186439  0.83686848  0.41505217    -0.23300
C3916       C  0.91368818  0.84436654  0.42066080    -0.00300
H3917       H  0.97128391  0.80873741  0.43847107     0.13500
H3918       H  0.95493040  0.84380227  0.39725196     0.13500
O3919       O  0.52532469  0.70427531  0.06089255    -0.87700
C3920       C  0.55954439  0.78400252  0.06380806     0.88400
Mg3921     Mg  0.50732106  0.69110933  0.02064269     1.58100
O3922       O  0.49623449  0.77578907  0.10232321    -0.87400
O3923       O  0.51669121  0.71232222  0.10654823    -0.74700
C3924       C  0.92873404  0.79660294  0.47900168     0.93400
O3925       O  0.55706427  0.74146768  0.01242604    -0.74500
O3926       O  0.93197222  0.77027779  0.47363056    -0.82100
Mg3927     Mg  0.56698527  0.72179960  0.05715928     1.58000
C3928       C  0.93202831  0.83158401  0.09589404     0.93300
O3929       O  0.57695314  0.69903238  0.10109181    -0.80300
H3930       H  0.97151916  0.75588068  0.13114842    -0.05700
C3931       C  0.49250305  0.80988738  0.02228929     0.88300
O3932       O  0.96206920  0.70062893  0.03998438    -0.74800
O3933       O  0.55072574  0.76108155  0.07394844    -0.87600
O3934       O  0.95663662  0.82799759  0.10706578    -0.80400
C3935       C  0.54749409  0.82776238  0.12637036     0.93400
C3936       C  0.58038921  0.71019661  0.12568100     0.93300
Mg3937     Mg  0.94077398  0.78679933  0.04932968     1.58000
O3938       O  0.93156327  0.80656081  0.00430564    -0.80300
O3939       O  0.95031886  0.76780074  0.09476641    -0.74600
O3940       O  0.55681287  0.80217162  0.12419293    -0.80400
O3941       O  0.58335914  0.68252830  0.03660254    -0.82100
O3942       O  0.94915319  0.70615839  0.48010086    -0.80400
C3943       C  0.97286505  0.76604323  0.11037005     0.87700
O3944       O  0.95409878  0.74641379  0.03162875    -0.87600
O3945       O  0.98280066  0.80106700  0.04534231    -0.87700
O3946       O  0.49101394  0.79491838  0.49947324    -0.74700
Mg3947     Mg  0.53632516  0.75749193  0.11588590     1.58000
O3948       O  0.52124090  0.83372143  0.12347551    -0.82100
H3949       H  0.50455320  0.67597097  0.08554896    -0.05800
O3950       O  0.51106110  0.73322754  0.50639849    -0.87400
H3951       H  0.53465716  0.75332816  0.47681990    -0.05700
H3952       H  0.92582568  0.72159482  0.05223519    -0.05800
C3953       C  0.53407304  0.74307298  0.49758057     0.87700
C3954       C  0.51507829  0.69657347  0.08416183     0.88300
C3955       C  0.94639351  0.72305609  0.04176024     0.88300
H3956       H  0.50258298  0.83073497  0.02154204    -0.05800
O3957       O  0.54471444  0.80694606  0.06492225    -0.74800
Mg3958     Mg  0.97158847  0.75008058  0.48998081     1.58000
H3959       H  0.58028564  0.78451702  0.05361072    -0.05800
C3960       C  0.57764851  0.67950456  0.51027675     0.93300
O3961       O  0.98743684  0.67957089  0.47746675    -0.82100
C3962       C  0.96043227  0.68168268  0.47649355     0.93400
O3963       O  0.57930292  0.73721437  0.12790153    -0.82100
Mg3964     Mg  0.50024349  0.81735207  0.08443603     1.58200
O3965       O  0.55218421  0.68225598  0.50055670    -0.80400
O3966       O  0.92956048  0.83019806  0.06890910    -0.82100
N3967       N  0.90673066  0.82813413  0.11324115    -0.02800
C3968       C  0.88477778  0.81045584  0.10571560    -0.00200
C3969       C  0.86505699  0.80832951  0.12743934    -0.23100
C3970       C  0.87455875  0.82579489  0.14901713    -0.23300
C3971       C  0.90005437  0.83806685  0.14004268    -0.00300
H3972       H  0.84528692  0.79618715  0.12717263     0.13500
H3973       H  0.86340922  0.82979969  0.16889149     0.13500
N3974       N  0.57663841  0.69288973  0.15109102    -0.02800
C3975       C  0.55907927  0.70065449  0.17287757    -0.00200
C3976       C  0.55657959  0.67892310  0.19268233    -0.23100
C3977       C  0.57371608  0.65706004  0.18340646    -0.23300
C3978       C  0.58614687  0.66593232  0.15800094    -0.00300
H3979       H  0.54444234  0.67937900  0.21237849     0.13500
H3980       H  0.57750125  0.63713438  0.19468562     0.13500
N3981       N  0.94330184  0.65623808  0.48032956    -0.02800
C3982       C  0.95085607  0.63470576  0.49846095    -0.00200
C3983       C  0.92917629  0.61478612  0.50060212    -0.23100
C3984       C  0.90764526  0.62378254  0.48266804    -0.23300
C3985       C  0.91663516  0.64916224  0.47015552    -0.00300
H3986       H  0.92948568  0.59516858  0.51298384     0.13500
H3987       H  0.88787034  0.61236556  0.47847688     0.13500
O3988       O  0.80553986  0.56532319  0.99735562    -0.87700
C3989       C  0.73683257  0.61644384  0.00777167     0.88400
Mg3990     Mg  0.80876775  0.53701849  0.46241022     1.58100
O3991       O  0.74163681  0.55934689  0.05566213    -0.87400
O3992       O  0.80687818  0.56450081  0.04450682    -0.74700
C3993       C  0.68086319  0.97793550  0.45687564     0.93400
O3994       O  0.76486600  0.59448559  0.44990450    -0.74500
O3995       O  0.70374792  0.97657859  0.44233675    -0.82100
Mg3996     Mg  0.79477039  0.60843448  0.98691535     1.58000
C3997       C  0.67944893  0.50820062  0.07561341     0.93300
O3998       O  0.82651537  0.62060024  0.02219165    -0.80300
H3999       H  0.76369954  0.53737882  0.08529968    -0.05700
C4000       C  0.69084736  0.54938788  0.48668980     0.88300
O4001       O  0.79482815  0.99987051  0.99177863    -0.74800
O4002       O  0.75948412  0.60469078  0.01542844    -0.87600
O4003       O  0.68680248  0.53439155  0.07640433    -0.80400
C4004       C  0.70715370  0.62564202  0.07978192     0.93400
C4005       C  0.82603452  0.62824694  0.04828922     0.93300
Mg4006     Mg  0.71307789  0.99825048  0.01937511     1.58000
O4007       O  0.68182246  0.98495802  0.98327918    -0.80300
O4008       O  0.74297830  0.01217719  0.05637698    -0.74600
O4009       O  0.73354583  0.62485105  0.07264318    -0.80400
O4010       O  0.83031473  0.61433869  0.45414600    -0.82100
O4011       O  0.77229581  0.98042534  0.43521402    -0.80400
C4012       C  0.74978989  0.53654309  0.06671448     0.87700
O4013       O  0.74771576  0.00133751  0.99091718    -0.87600
O4014       O  0.70247108  0.54151607  0.00936192    -0.87700
O4015       O  0.70026295  0.54197771  0.46218109    -0.74700
Mg4016     Mg  0.76992628  0.59414614  0.05867608     1.58000
O4017       O  0.69244784  0.60277018  0.08046715    -0.82100
H4018       H  0.83544796  0.54362001  0.01931261    -0.05800
O4019       O  0.76554574  0.54730145  0.45153225    -0.87400
H4020       H  0.74356197  0.56901312  0.42164064    -0.05700
H4021       H  0.76951269  0.97115861  0.01235572    -0.05800
C4022       C  0.75762400  0.57001326  0.44010247     0.87700
C4023       C  0.81687117  0.55743671  0.02014397     0.88300
C4024       C  0.77043335  0.98985562  0.99871054     0.88300
H4025       H  0.67250460  0.56349664  0.48775064    -0.05800
O4026       O  0.71234295  0.60694292  0.01516998    -0.74800
Mg4027     Mg  0.73693770  0.51204770  0.44788922     1.58000
H4028       H  0.73788567  0.63496269  0.99389028    -0.05800
C4029       C  0.82963868  0.59964318  0.43127695     0.93300
O4030       O  0.81262107  0.00432376  0.42682950    -0.82100
C4031       C  0.79841227  0.98106672  0.42757991     0.93400
O4032       O  0.80281638  0.62947242  0.06240246    -0.82100
Mg4033     Mg  0.69854080  0.56985663  0.04483818     1.58200
O4034       O  0.82256069  0.57324512  0.43194931    -0.80400
O4035       O  0.67804469  0.99429404  0.05221663    -0.82100
N4036       N  0.83000758  0.61405660  0.40389783    -0.02800
C4037       C  0.81399716  0.60542199  0.38100711    -0.00200
C4038       C  0.81519612  0.62517271  0.35914993    -0.23100
C4039       C  0.83283382  0.64671877  0.36845607    -0.23300
C4040       C  0.84188590  0.63966655  0.39593306    -0.00300
H4041       H  0.80496305  0.62365911  0.33833192     0.13500
H4042       H  0.83892441  0.66533564  0.35606725     0.13500
N4043       N  0.69278955  0.65313512  0.08036827    -0.02800
C4044       C  0.70170230  0.67614881  0.06487532    -0.00200
C4045       C  0.68215782  0.69818525  0.06611611    -0.23100
C4046       C  0.66033749  0.68889393  0.08317206    -0.23300
C4047       C  0.66703404  0.66125626  0.09184583    -0.00300
H4048       H  0.68391775  0.71905760  0.05615340     0.13500
H4049       H  0.64171267  0.70135673  0.08907132     0.13500
N4050       N  0.65343940  0.97850621  0.44226949    -0.02800
C4051       C  0.63090226  0.99477062  0.45099201    -0.00200
C4052       C  0.60918559  0.99453388  0.43088665    -0.23100
C4053       C  0.61816737  0.97722084  0.40903193    -0.23300
C4054       C  0.64528406  0.96742000  0.41629759    -0.00300
H4055       H  0.58863309  0.00517700  0.43236804     0.13500
H4056       H  0.60578458  0.97176508  0.39012313     0.13500
O4057       O  0.80928423  0.75132210  0.31566131    -0.87700
C4058       C  0.79937506  0.82000356  0.36647269     0.88400
Mg4059     Mg  0.84392258  0.74823995  0.28720326     1.58100
O4060       O  0.75145893  0.81530695  0.30922471    -0.87400
O4061       O  0.76217216  0.74985114  0.31480073    -0.74700
C4062       C  0.84984679  0.87562579  0.22679435     0.93400
O4063       O  0.85673319  0.79197763  0.34439266    -0.74500
O4064       O  0.86454660  0.85275014  0.22610282    -0.82100
Mg4065     Mg  0.82006486  0.76204440  0.35868950     1.58000
C4066       C  0.73096207  0.87824986  0.25830237     0.93300
O4067       O  0.78471639  0.73042166  0.37137355    -0.80300
H4068       H  0.72154635  0.79361010  0.28726718    -0.05700
C4069       C  0.82016513  0.86643120  0.29880513     0.88300
O4070       O  0.81401779  0.76216370  0.25020173    -0.74800
O4071       O  0.79145308  0.79729150  0.35504444    -0.87600
O4072       O  0.73048491  0.87059616  0.28439787    -0.80400
C4073       C  0.72736795  0.84962868  0.37530390     0.93400
C4074       C  0.75860042  0.73105839  0.37900845     0.93300
Mg4075     Mg  0.78706807  0.84413758  0.24790328     1.58000
O4076       O  0.82345463  0.87484007  0.23393581    -0.80300
O4077       O  0.75011421  0.81449411  0.26207336    -0.74600
O4078       O  0.73444439  0.82323044  0.37463274    -0.80400
O4079       O  0.85325747  0.72658004  0.36424204    -0.82100
O4080       O  0.87018865  0.78437515  0.23017131    -0.80400
C4081       C  0.74012436  0.80742575  0.28643619     0.87700
O4082       O  0.81535589  0.80933417  0.25091277    -0.87600
O4083       O  0.79751358  0.85467695  0.29115133    -0.87700
O4084       O  0.84465420  0.85693144  0.29140276    -0.74700
Mg4085     Mg  0.74823152  0.78700539  0.34416949     1.58000
O4086       O  0.72668458  0.86432110  0.35243318    -0.82100
H4087       H  0.78749033  0.72114017  0.29422423    -0.05800
O4088       O  0.85452081  0.79150657  0.29721344    -0.87400
H4089       H  0.88448485  0.81349825  0.31881820    -0.05700
H4090       H  0.79329043  0.78736239  0.22128003    -0.05800
C4091       C  0.86614469  0.79938664  0.31988249     0.87700
C4092       C  0.78656782  0.73983773  0.30786891     0.88300
C4093       C  0.80720228  0.78652885  0.23986354     0.88300
H4094       H  0.81911268  0.88495007  0.31268637    -0.05800
O4095       O  0.79213308  0.84447509  0.35666962    -0.74800
Mg4096     Mg  0.85845270  0.81984245  0.26173517     1.58000
H4097       H  0.81343878  0.81900418  0.38493363    -0.05800
C4098       C  0.87614216  0.72794252  0.34970418     0.93300
O4099       O  0.87895805  0.74428664  0.25436836    -0.82100
C4100       C  0.87754671  0.75818574  0.23096823     0.93400
O4101       O  0.74438374  0.75431129  0.37975186    -0.82100
Mg4102     Mg  0.76223010  0.85841775  0.31966847     1.58200
O4103       O  0.87518458  0.73495767  0.32329606    -0.80400
O4104       O  0.75417718  0.87946820  0.24418301    -0.82100
N4105       N  0.86421919  0.90311484  0.22621575    -0.02800
C4106       C  0.85531146  0.92612722  0.24171461    -0.00200
C4107       C  0.87486230  0.94815779  0.24048329    -0.23100
C4108       C  0.89668204  0.93886480  0.22342765    -0.23300
C4109       C  0.88997914  0.91123171  0.21474396    -0.00300
H4110       H  0.87310736  0.96902759  0.25045254     0.13500
H4111       H  0.91531120  0.95132365  0.21753585     0.13500
N4112       N  0.72701164  0.86404645  0.40268052    -0.02800
C4113       C  0.74303417  0.85541818  0.42556575    -0.00200
C4114       C  0.74184359  0.87517524  0.44741814    -0.23100
C4115       C  0.72419891  0.89671768  0.43811480    -0.23300
C4116       C  0.71513425  0.88965733  0.41064397    -0.00300
H4117       H  0.75208618  0.87366787  0.46823181     0.13500
H4118       H  0.71811232  0.91533748  0.45050177     0.13500
N4119       N  0.90356451  0.72852375  0.36431193    -0.02800
C4120       C  0.92609714  0.74479464  0.35559021    -0.00200
C4121       C  0.94781055  0.74456698  0.37569953    -0.23100
C4122       C  0.93883166  0.72725301  0.39755487    -0.23300
C4123       C  0.91171963  0.71744247  0.39028616    -0.00300
H4124       H  0.96835959  0.75521628  0.37422012     0.13500
H4125       H  0.95121333  0.72180340  0.41646625     0.13500
O4126       O  0.74207804  0.49765242  0.24988854    -0.87700
C4127       C  0.69152606  0.50722706  0.31871701     0.88400
Mg4128     Mg  0.77121527  0.96331225  0.24677993     1.58100
O4129       O  0.74735029  0.55654977  0.31419289    -0.87400
O4130       O  0.74228456  0.54479192  0.24869758    -0.74700
C4131       C  0.83094099  0.95943580  0.37500661     0.93400
O4132       O  0.71446881  0.94987656  0.29072478    -0.74500
O4133       O  0.83257536  0.94475232  0.35214857    -0.82100
Mg4134     Mg  0.69926990  0.48628460  0.26081677     1.58000
C4135       C  0.79869249  0.57795804  0.37757147     0.93300
O4136       O  0.68504965  0.52059788  0.22905181    -0.80300
H4137       H  0.76867688  0.58665042  0.29241973    -0.05700
C4138       C  0.75902338  0.98803171  0.36482508     0.88300
O4139       O  0.80782076  0.49356585  0.26088856    -0.74800
O4140       O  0.70261141  0.51521694  0.29594703    -0.87600
O4141       O  0.77244761  0.57837274  0.36991377    -0.80400
C4142       C  0.68028612  0.57977619  0.34784825     0.93400
C4143       C  0.67713297  0.54662335  0.22889793     0.93300
Mg4144     Mg  0.80948930  0.52166225  0.34289781     1.58000
O4145       O  0.82356815  0.48575181  0.37394257    -0.80300
O4146       O  0.79451774  0.55833268  0.31318521    -0.74600
O4147       O  0.68144980  0.57254420  0.32143924    -0.80400
O4148       O  0.69405447  0.95344139  0.22527142    -0.82100
O4149       O  0.82874818  0.93717768  0.28319214    -0.80400
C4150       C  0.76991762  0.56809973  0.30624974     0.87700
O4151       O  0.80682340  0.49294214  0.30804078    -0.87600
O4152       O  0.76650732  0.51091870  0.35351021    -0.87700
O4153       O  0.76688552  0.96368260  0.35523396    -0.74700
Mg4154     Mg  0.71249683  0.55864136  0.28540285     1.58000
O4155       O  0.70287905  0.58034900  0.36320439    -0.82100
H4156       H  0.76324018  0.51980930  0.22000050    -0.05800
O4157       O  0.76158206  0.95252920  0.29000767    -0.87400
H4158       H  0.74067563  0.92236533  0.31210086    -0.05700
H4159       H  0.83628354  0.51494505  0.28610552    -0.05800
C4160       C  0.73918442  0.94067552  0.29797836     0.87700
C4161       C  0.74952724  0.52050789  0.23858292     0.88300
C4162       C  0.81789521  0.50086719  0.28526176     0.88300
H4163       H  0.74484789  0.98874901  0.38305281    -0.05800
O4164       O  0.70108671  0.51504790  0.34314716    -0.74800
Mg4165     Mg  0.79700037  0.94967321  0.31865976     1.58000
H4166       H  0.67358491  0.49258713  0.31780648    -0.05800
C4167       C  0.70902448  0.93078414  0.22618059     0.93300
O4168       O  0.80469939  0.92843205  0.24282165    -0.82100
C4169       C  0.82801629  0.92936969  0.25705678     0.93400
O4170       O  0.67747559  0.56182620  0.25157715    -0.82100
Mg4171     Mg  0.73729242  0.54578609  0.35731385     1.58200
O4172       O  0.73548331  0.93192349  0.23313566    -0.80400
O4173       O  0.81308899  0.55479946  0.37825532    -0.82100
N4174       N  0.69480767  0.90330044  0.22650275    -0.02800
C4175       C  0.70354029  0.88096970  0.24299828    -0.00200
C4176       C  0.68376792  0.85906940  0.24257085    -0.23100
C4177       C  0.66206431  0.86778413  0.22479739    -0.23300
C4178       C  0.66916254  0.89491099  0.21499391    -0.00300
H4179       H  0.68536590  0.83861794  0.25341093     0.13500
H4180       H  0.64339610  0.85522117  0.21904250     0.13500
N4181       N  0.65240999  0.58148928  0.36121525    -0.02800
C4182       C  0.62947133  0.56610596  0.35201708    -0.00200
C4183       C  0.60650439  0.56892589  0.37012651    -0.23100
C4184       C  0.61517474  0.58684403  0.39153409    -0.23300
C4185       C  0.64334743  0.59435199  0.38592298    -0.00300
H4186       H  0.58576082  0.55870995  0.36811315     0.13500
H4187       H  0.60210939  0.59376891  0.40933841     0.13500
N4188       N  0.83033844  0.94503765  0.40247304    -0.02800
C4189       C  0.81375536  0.95370488  0.42472272    -0.00200
C4190       C  0.81419540  0.93399104  0.44666376    -0.23100
C4191       C  0.83193822  0.91236390  0.43813154    -0.23300
C4192       C  0.84177564  0.91940639  0.41105854    -0.00300
H4193       H  0.80339176  0.93560384  0.46706685     0.13500
H4194       H  0.83767930  0.89378192  0.45081122     0.13500
C4195       C  0.65400586  0.64899046  0.44177564     0.80900
N4196       N  0.67823138  0.66224014  0.43241043    -0.77400
C4197       C  0.69281095  0.65202395  0.40957097     0.83300
N4198       N  0.68244768  0.62867891  0.39536929    -0.77400
C4199       C  0.65835888  0.61531070  0.40432201     0.83400
N4200       N  0.64412794  0.62579638  0.42746359    -0.79100
C4201       C  0.89866702  0.86532900  0.90226797     0.80900
N4202       N  0.87458063  0.87869834  0.91122816    -0.77400
C4203       C  0.86421892  0.90204895  0.89703380     0.83300
N4204       N  0.87879790  0.91226985  0.87419657    -0.77400
C4205       C  0.90302108  0.89902050  0.86482544     0.83400
N4206       N  0.91289726  0.87582033  0.87912862    -0.79100
C4207       C  0.65195397  0.90922992  0.69245432     0.80900
N4208       N  0.66175507  0.93289493  0.67877135    -0.77400
C4209       C  0.64857911  0.94271271  0.65455596     0.83300
N4210       N  0.62607651  0.92791694  0.64368806    -0.77400
C4211       C  0.61605328  0.90402773  0.65703877     0.83400
N4212       N  0.62921105  0.89474220  0.68120466    -0.79100
C4213       C  0.91379940  0.86132741  0.65710131     0.80900
N4214       N  0.93785159  0.87495276  0.64817032    -0.77400
C4215       C  0.94766022  0.89886436  0.66204608     0.83300
N4216       N  0.93263497  0.90931078  0.68451413    -0.77400
C4217       C  0.90838315  0.89597816  0.69378872     0.83400
N4218       N  0.89906029  0.87224662  0.67981342    -0.79100
C4219       C  0.60934532  0.64886726  0.64454027     0.80900
N4220       N  0.61916020  0.62495778  0.65841555    -0.77400
C4221       C  0.64321252  0.61133448  0.64947928     0.83300
N4222       N  0.65794498  0.62225413  0.62676392    -0.77400
C4223       C  0.64861608  0.64598361  0.61278981     0.83400
N4224       N  0.62436468  0.65931393  0.62206865    -0.79100
C4225       C  0.94095425  0.65402400  0.64953153     0.80900
N4226       N  0.93092622  0.67791110  0.66288429    -0.77400
C4227       C  0.90841338  0.69269674  0.65202298     0.83300
N4228       N  0.89523417  0.68287165  0.62781299    -0.77400
C4229       C  0.90503884  0.65920895  0.61412890     0.83400
N4230       N  0.92779068  0.64472991  0.62537165    -0.79100
C4231       C  0.89699209  0.69551201  0.90791083     0.80900
N4232       N  0.91011091  0.68593963  0.93229763    -0.77400
C4233       C  0.90006734  0.66260135  0.94638020     0.83300
N4234       N  0.87695666  0.64823832  0.93540893    -0.77400
C4235       C  0.86363657  0.65744551  0.91116789     0.83400
N4236       N  0.87408885  0.68096641  0.89745508    -0.79100
C4237       C  0.65694442  0.91259627  0.86017991     0.80900
N4238       N  0.68004895  0.89822628  0.87115645    -0.77400
C4239       C  0.69336183  0.90742717  0.89540449     0.83300
N4240       N  0.68290790  0.93094722  0.90911814    -0.77400
C4241       C  0.66001025  0.94549790  0.89865730     0.83400
N4242       N  0.64689930  0.93593269  0.87426419    -0.79100
O4243       O  0.00087727  0.56581217  0.56117846    -0.87700
C4244       C  0.56974323  0.61629800  0.55051089     0.88400
Mg4245     Mg  0.99882906  0.53617719  0.59501623     1.58100
O4246       O  0.56423998  0.56034850  0.00137167    -0.87400
O4247       O  0.99880081  0.56540393  0.01407744    -0.74700
C4248       C  0.62695356  0.97671824  0.59759801     0.93400
O4249       O  0.54277187  0.59355847  0.60832662    -0.74500
O4250       O  0.60447926  0.97589300  0.61271350    -0.82100
Mg4251     Mg  0.01215279  0.60863417  0.57240922     1.58000
C4252       C  0.62762621  0.00954200  0.97873632     0.93300
O4253       O  0.97952368  0.62254943  0.53843851    -0.80300
H4254       H  0.54190546  0.53888187  0.97157874    -0.05700
C4255       C  0.61680239  0.54914302  0.56872535     0.88300
O4256       O  0.01273918  0.00016378  0.56434867    -0.74800
O4257       O  0.54672880  0.60521651  0.54289361    -0.87600
O4258       O  0.61986889  0.53571191  0.97867447    -0.80400
C4259       C  0.59748700  0.62745629  0.97737821     0.93400
C4260       C  0.97904238  0.63027086  0.01233492     0.93300
Mg4261     Mg  0.59399871  0.99837009  0.53563271     1.58000
O4262       O  0.62555242  0.98397872  0.57123462    -0.80300
O4263       O  0.56348872  0.01319962  0.99944068    -0.74600
O4264       O  0.57125135  0.62622077  0.98511661    -0.80400
O4265       O  0.97756252  0.61400211  0.60623799    -0.82100
O4266       O  0.53735756  0.97941366  0.62148776    -0.80400
C4267       C  0.55615558  0.53774044  0.98988781     0.87700
O4268       O  0.55989280  0.00105642  0.56489809    -0.87600
O4269       O  0.60493939  0.54144435  0.54612239    -0.87700
O4270       O  0.60763235  0.54159861  0.59327467    -0.74700
Mg4271     Mg  0.53538220  0.59514956  0.99966957     1.58000
O4272       O  0.61274858  0.60491933  0.97652326    -0.82100
H4273       H  0.97035817  0.54470098  0.53951845    -0.05800
O4274       O  0.54229972  0.54644429  0.60544289    -0.87400
H4275       H  0.56484005  0.56745273  0.63539308    -0.05700
H4276       H  0.53756607  0.97172773  0.54286149    -0.05800
C4277       C  0.55032885  0.56887920  0.61730531     0.87700
C4278       C  0.98905362  0.55834212  0.53851320     0.88300
C4279       C  0.53696936  0.99003385  0.55704504     0.88300
H4280       H  0.63508992  0.56331190  0.56757486    -0.05800
O4281       O  0.59396573  0.60679961  0.54224331    -0.74800
Mg4282     Mg  0.57141967  0.01139975  0.60795406     1.58000
H4283       H  0.56925066  0.63420689  0.56519867    -0.05800
C4284       C  0.97724636  0.59810496  0.62829807     0.93300
O4285       O  0.99575217  0.00135098  0.62887946    -0.82100
C4286       C  0.01130522  0.97888424  0.62911123     0.93400
O4287       O  0.00158564  0.63010688  0.99703927    -0.82100
Mg4288     Mg  0.60766062  0.57069246  0.01129689     1.58200
O4289       O  0.98438815  0.57165030  0.62672814    -0.80400
O4290       O  0.62854196  0.99482741  0.00170818    -0.82100
N4291       N  0.61089464  0.65535620  0.97532473    -0.02800
C4292       C  0.60185370  0.67838474  0.99053731    -0.00200
C4293       C  0.62003308  0.70136526  0.98746217    -0.23100
C4294       C  0.64133743  0.69257108  0.96960488    -0.23300
C4295       C  0.63560917  0.66432118  0.96238892    -0.00300
H4296       H  0.61818169  0.72217837  0.99752973     0.13500
H4297       H  0.65917382  0.70557764  0.96256448     0.13500
N4298       N  0.97447120  0.61095500  0.65631313    -0.02800
C4299       C  0.98938476  0.60163682  0.67944392    -0.00200
C4300       C  0.98569224  0.61935278  0.70268708    -0.23100
C4301       C  0.96771450  0.64070748  0.69383734    -0.23300
C4302       C  0.96114736  0.63542764  0.66531357    -0.00300
H4303       H  0.99550304  0.61723861  0.72365196     0.13500
H4304       H  0.96028704  0.65833801  0.70692141     0.13500
N4305       N  0.65466114  0.97641538  0.61160832    -0.02800
C4306       C  0.67712443  0.99255823  0.60278969    -0.00200
C4307       C  0.69939420  0.99156026  0.62224659    -0.23100
C4308       C  0.69072548  0.97387395  0.64391654    -0.23300
C4309       C  0.66327025  0.96469385  0.63711345    -0.00300
H4310       H  0.72000518  0.00204244  0.62050018     0.13500
H4311       H  0.70348639  0.96780462  0.66238212     0.13500
O4312       O  0.49275692  0.81037788  0.80519956    -0.87700
C4313       C  0.94018926  0.79916566  0.73783641     0.88400
Mg4314     Mg  0.52162161  0.84517436  0.80689778     1.58100
O4315       O  0.49709600  0.75107491  0.74166981    -0.87400
O4316       O  0.49350027  0.76322908  0.80713555    -0.74700
C4317       C  0.57975703  0.84810897  0.67826648     0.93400
O4318       O  0.96303424  0.85682682  0.76432334    -0.74500
O4319       O  0.57943405  0.86401174  0.70032250    -0.82100
Mg4320     Mg  0.94933614  0.82072498  0.79527279     1.58000
C4321       C  0.54568888  0.72888798  0.67746009     0.93300
O4322       O  0.93712125  0.78574530  0.82789767    -0.80300
H4323       H  0.51941942  0.72174514  0.76370861    -0.05700
C4324       C  0.50666740  0.81889281  0.68925857     0.88300
O4325       O  0.55819891  0.81542417  0.79248949    -0.74800
O4326       O  0.95205020  0.79146929  0.76044142    -0.87600
O4327       O  0.51963614  0.72941893  0.68508345    -0.80400
C4328       C  0.93003719  0.72672921  0.70896975     0.93400
C4329       C  0.92936079  0.75957532  0.82783673     0.93300
Mg4330     Mg  0.55816444  0.78618536  0.71154960     1.58000
O4331       O  0.57261348  0.82165510  0.67983981    -0.80300
O4332       O  0.54424930  0.75017571  0.74221853    -0.74600
O4333       O  0.93143918  0.73399604  0.73533163    -0.80400
O4334       O  0.94425270  0.85495660  0.83004554    -0.82100
O4335       O  0.57748050  0.87255998  0.76812544    -0.80400
C4336       C  0.52001812  0.74005002  0.74952365     0.87700
O4337       O  0.55611790  0.81582327  0.74538553    -0.87600
O4338       O  0.51469521  0.79645663  0.70112003    -0.87700
O4339       O  0.51422515  0.84357143  0.69823882    -0.74700
Mg4340     Mg  0.96298900  0.74839439  0.77093478     1.58000
O4341       O  0.95250963  0.72590809  0.69385123    -0.82100
H4342       H  0.51508524  0.78891051  0.83499669    -0.05800
O4343       O  0.51027097  0.85523658  0.76367278    -0.87400
H4344       H  0.98775276  0.88423370  0.74137196    -0.05700
H4345       H  0.58663467  0.79470829  0.76704535    -0.05800
C4346       C  0.98725797  0.86632275  0.75605727     0.87700
C4347       C  0.50083647  0.78776980  0.81668636     0.88300
C4348       C  0.56794077  0.80835198  0.76805065     0.88300
H4349       H  0.49215658  0.81746822  0.67117044    -0.05800
O4350       O  0.94936037  0.79161677  0.71328841    -0.74800
Mg4351     Mg  0.54484659  0.85864717  0.73415506     1.58000
H4352       H  0.92190134  0.81333553  0.73898369    -0.05800
C4353       C  0.95952296  0.87748808  0.82920070     0.93300
O4354       O  0.55542540  0.88012853  0.80952229    -0.82100
C4355       C  0.57796531  0.88029192  0.79422118     0.93400
O4356       O  0.92844491  0.74486057  0.80486461    -0.82100
Mg4357     Mg  0.48557262  0.76141263  0.69861140     1.58200
O4358       O  0.48575779  0.87624709  0.82145987    -0.80400
O4359       O  0.56123996  0.75135585  0.67768663    -0.82100
N4360       N  0.90232725  0.72640899  0.69496443    -0.02800
C4361       C  0.87985811  0.74254367  0.70378365    -0.00200
C4362       C  0.85758273  0.74152793  0.68433451    -0.23100
C4363       C  0.86625437  0.72383876  0.66266801    -0.23300
C4364       C  0.89371676  0.71467470  0.66946568    -0.00300
H4365       H  0.83696677  0.75200000  0.68608397     0.13500
H4366       H  0.85349095  0.71775695  0.64420846     0.13500
N4367       N  0.58254906  0.86095015  0.65024936    -0.02800
C4368       C  0.56765206  0.85162190  0.62711222    -0.00200
C4369       C  0.57136133  0.86932681  0.60386380    -0.23100
C4370       C  0.58933137  0.89068610  0.61271759    -0.23300
C4371       C  0.59587720  0.88541986  0.64124866    -0.00300
H4372       H  0.56156462  0.86720409  0.58289362     0.13500
H4373       H  0.59676630  0.90831164  0.59963173     0.13500
N4374       N  0.94612777  0.90539235  0.83127595    -0.02800
C4375       C  0.95517433  0.92842550  0.81607466    -0.00200
C4376       C  0.93701040  0.95141518  0.81917500    -0.23100
C4377       C  0.91570872  0.94262073  0.83703546    -0.23300
C4378       C  0.92142337  0.91436179  0.84422762    -0.00300
H4379       H  0.93886888  0.97223411  0.80912070     0.13500
H4380       H  0.89788193  0.95563196  0.84409203     0.13500
O4381       O  0.60292132  0.49642022  0.77493862    -0.87700
C4382       C  0.52294932  0.49309864  0.80898986     0.88400
Mg4383     Mg  0.61624293  0.53680433  0.75723581     1.58100
O4384       O  0.53168721  0.95428343  0.74568521    -0.87400
O4385       O  0.59494514  0.95063595  0.76658566    -0.74700
C4386       C  0.00953568  0.57775536  0.68017917     0.93400
O4387       O  0.56601150  0.54492988  0.80709648    -0.74500
O4388       O  0.53578941  0.58371069  0.68307359    -0.82100
Mg4389     Mg  0.58543418  0.50008934  0.81658905     1.58000
C4390       C  0.97662227  0.96019024  0.68089754     0.93300
O4391       O  0.60786386  0.95616259  0.82646767    -0.80300
H4392       H  0.55245292  0.92596743  0.72103689    -0.05700
C4393       C  0.99747206  0.53401067  0.74274351     0.88300
O4394       O  0.60670352  0.51779810  0.71179987    -0.74800
O4395       O  0.54595820  0.98324412  0.80017443    -0.87600
O4396       O  0.98005388  0.94903258  0.70549067    -0.80400
C4397       C  0.97936372  0.92953709  0.79631288     0.93400
C4398       C  0.59658151  0.93168860  0.83007546     0.93300
Mg4399     Mg  0.52069565  0.50748413  0.69067685     1.58000
O4400       O  0.00021389  0.55216584  0.68235770    -0.80300
O4401       O  0.54032257  0.96231486  0.70002708    -0.74600
O4402       O  0.50483136  0.93228343  0.80602443    -0.80400
O4403       O  0.62505460  0.52028162  0.83293587    -0.82100
O4404       O  0.60038660  0.57798958  0.69949654    -0.80400
C4405       C  0.54193196  0.94657236  0.72241796     0.87700
O4406       O  0.56078779  0.52578192  0.70423749    -0.87600
O4407       O  0.00629271  0.51108659  0.73261165    -0.87700
O4408       O  0.51230333  0.55695253  0.74162700    -0.74700
Mg4409     Mg  0.54969487  0.94112478  0.78593471     1.58000
O4410       O  0.97364655  0.93255930  0.76999787    -0.82100
H4411       H  0.63118896  0.97159701  0.75432971    -0.05800
O4412       O  0.57421426  0.55106755  0.76121803    -0.87400
H4413       H  0.55443308  0.58074213  0.78501202    -0.05700
H4414       H  0.58550741  0.50586885  0.67541835    -0.05800
C4415       C  0.56451367  0.55989447  0.78426935     0.87700
C4416       C  0.61062282  0.97306122  0.76480723     0.88300
C4417       C  0.58415867  0.51603531  0.69619466     0.88300
H4418       H  0.97672849  0.53452922  0.75293573    -0.05800
O4419       O  0.99995989  0.49149853  0.79414119    -0.74800
Mg4420     Mg  0.55677779  0.56734841  0.72211941     1.58000
H4421       H  0.52236834  0.50335915  0.82974851    -0.05800
C4422       C  0.62828923  0.54660767  0.82756748     0.93300
O4423       O  0.62745305  0.58020191  0.73765890    -0.82100
C4424       C  0.62499089  0.58158381  0.71067383     0.93400
O4425       O  0.56957670  0.92958148  0.82910444    -0.82100
Mg4426     Mg  0.99002899  0.97181541  0.74941687     1.58200
O4427       O  0.62544805  0.55657430  0.80225722    -0.80400
O4428       O  0.97771472  0.98720732  0.67866935    -0.82100
N4429       N  0.61370781  0.90624077  0.82623835    -0.02800
C4430       C  0.60615128  0.88471132  0.80810401    -0.00200
C4431       C  0.62782795  0.86478740  0.80596380    -0.23100
C4432       C  0.64935859  0.87377785  0.82390159    -0.23300
C4433       C  0.64037195  0.89915839  0.83641542    -0.00300
H4434       H  0.62751625  0.84517018  0.79358100     0.13500
H4435       H  0.66913088  0.86235653  0.82809444     0.13500
N4436       N  0.65029328  0.57814125  0.69333354    -0.02800
C4437       C  0.67225033  0.56047026  0.70086355    -0.00200
C4438       C  0.69197745  0.55835234  0.67914451    -0.23100
C4439       C  0.68247390  0.57581584  0.65756538    -0.23300
C4440       C  0.65697134  0.58807784  0.66653506    -0.00300
H4441       H  0.71175208  0.54621658  0.67941516     0.13500
H4442       H  0.69362630  0.57982619  0.63769366     0.13500
N4443       N  0.98037070  0.94287561  0.65549149    -0.02800
C4444       C  0.99792325  0.95063752  0.63369871    -0.00200
C4445       C  0.00042451  0.92890168  0.61389899    -0.23100
C4446       C  0.98329518  0.90703810  0.62318369    -0.23300
C4447       C  0.97086621  0.91591481  0.64858909    -0.00300
H4448       H  0.01255736  0.92935534  0.59419998     0.13500
H4449       H  0.97951172  0.88710919  0.61190895     0.13500
O4450       O  0.80968773  0.80654404  0.49238546    -0.87700
C4451       C  0.79799709  0.73802509  0.94175371     0.88400
Mg4452     Mg  0.84454306  0.80863158  0.52117474     1.58100
O4453       O  0.75020383  0.74294841  0.49854616    -0.87400
O4454       O  0.76252064  0.80833512  0.49339296    -0.74700
C4455       C  0.84798871  0.68077343  0.58040079     0.93400
O4456       O  0.85594068  0.76504277  0.96342786    -0.74500
O4457       O  0.86296979  0.70342344  0.58130076    -0.82100
Mg4458     Mg  0.81973439  0.79578242  0.94926169     1.58000
C4459       C  0.72899558  0.67939056  0.54954027     0.93300
O4460       O  0.78457774  0.82837128  0.93665833    -0.80300
H4461       H  0.72075088  0.76496362  0.52047934    -0.05700
C4462       C  0.81782962  0.69066868  0.50860507     0.88300
O4463       O  0.81475822  0.79478760  0.55788263    -0.74800
O4464       O  0.79051705  0.76091554  0.95306568    -0.87600
O4465       O  0.72826456  0.68719346  0.52340352    -0.80400
C4466       C  0.72607282  0.70943510  0.93157978     0.93400
C4467       C  0.75833333  0.82795654  0.92899759     0.93300
Mg4468     Mg  0.78580763  0.71331948  0.55980721     1.58000
O4469       O  0.82152904  0.68192288  0.57345195    -0.80300
O4470       O  0.74921037  0.74358187  0.54569805    -0.74600
O4471       O  0.73345067  0.73575005  0.93263933    -0.80400
O4472       O  0.85414856  0.83034566  0.94337329    -0.82100
O4473       O  0.87199131  0.77057886  0.57752159    -0.80400
C4474       C  0.73913560  0.75088092  0.52132443     0.87700
O4475       O  0.81495561  0.74764859  0.55669042    -0.87600
O4476       O  0.79543496  0.70252591  0.51658029    -0.87700
O4477       O  0.84254825  0.69986621  0.51585214    -0.74700
Mg4478     Mg  0.74753584  0.77166500  0.96367865     1.58000
O4479       O  0.72443510  0.69475739  0.95444076    -0.82100
H4480       H  0.78836571  0.83665012  0.51415660    -0.05800
O4481       O  0.85442470  0.76520578  0.51062862    -0.85800
H4482       H  0.88344374  0.74258063  0.98876620    -0.05700
H4483       H  0.79380328  0.76980927  0.58658307    -0.05800
C4484       C  0.86550228  0.75722010  0.98785719     0.87700
C4485       C  0.78712221  0.81809836  0.50032812     0.88300
C4486       C  0.80751327  0.77050525  0.56799827     0.88300
H4487       H  0.81633287  0.67235879  0.49448245    -0.05800
O4488       O  0.79013029  0.71367853  0.95134738    -0.74800
Mg4489     Mg  0.85776046  0.73627011  0.54575748     1.58000
H4490       H  0.81217210  0.73873722  0.92352544    -0.05800
C4491       C  0.87674214  0.82977341  0.95872882     0.93300
O4492       O  0.87956650  0.81180929  0.55500069    -0.82100
C4493       C  0.87990937  0.79660375  0.57767828     0.93400
O4494       O  0.74393736  0.80479786  0.92831564    -0.82100
Mg4495     Mg  0.76001417  0.69967541  0.48793243     1.58200
O4496       O  0.87558576  0.82253744  0.48513595    -0.80400
O4497       O  0.75231246  0.67845148  0.56377539    -0.82100
N4498       N  0.72667632  0.69503010  0.90411644    -0.02800
C4499       C  0.74325725  0.70369500  0.88186452    -0.00200
C4500       C  0.74282352  0.68397560  0.85992855    -0.23100
C4501       C  0.72508619  0.66234700  0.86846538    -0.23300
C4502       C  0.71524530  0.66939413  0.89553616    -0.00300
H4503       H  0.75362750  0.68558550  0.83952545     0.13500
H4504       H  0.71935053  0.64376095  0.85578963     0.13500
N4505       N  0.86219188  0.65328286  0.58008517    -0.02800
C4506       C  0.85345028  0.63095374  0.56359286    -0.00200
C4507       C  0.87321027  0.60904168  0.56403026    -0.23100
C4508       C  0.89491567  0.61774895  0.58180574    -0.23300
C4509       C  0.88783069  0.64488307  0.59159941    -0.00300
H4510       H  0.87160326  0.58858849  0.55319439     0.13500
H4511       H  0.91357673  0.60517767  0.58756724     0.13500
N4512       N  0.90461738  0.83149017  0.94536078    -0.02800
C4513       C  0.92755654  0.81610328  0.95455246    -0.00200
C4514       C  0.95052181  0.81892686  0.93644165    -0.23100
C4515       C  0.94185008  0.83685216  0.91504060    -0.23300
C4516       C  0.91367821  0.84436074  0.92065689    -0.00300
H4517       H  0.97126606  0.80871036  0.93845105     0.13500
H4518       H  0.95491436  0.84378239  0.89723762     0.13500
O4519       O  0.52532143  0.70426862  0.56089056    -0.87700
C4520       C  0.55954417  0.78399258  0.56381617     0.88400
Mg4521     Mg  0.50731657  0.69110961  0.52063941     1.58100
O4522       O  0.49623186  0.77577824  0.60232765    -0.87400
O4523       O  0.51668597  0.71230986  0.60654701    -0.74700
C4524       C  0.92872562  0.79659243  0.97899540     0.93400
O4525       O  0.55706196  0.74146789  0.51242956    -0.74500
O4526       O  0.93196976  0.77026749  0.97362666    -0.82100
Mg4527     Mg  0.56698222  0.72179285  0.55715968     1.58000
C4528       C  0.93203134  0.83158076  0.59590123     0.93300
O4529       O  0.57694841  0.69902067  0.60109116    -0.80300
H4530       H  0.97151442  0.75586865  0.63115035    -0.05700
C4531       C  0.49250794  0.80988663  0.52229836     0.88300
O4532       O  0.96206536  0.70062990  0.53998287    -0.74800
O4533       O  0.55072300  0.76107139  0.57395367    -0.87600
O4534       O  0.95663800  0.82798961  0.60707512    -0.80400
C4535       C  0.54749589  0.82774554  0.62637692     0.93400
C4536       C  0.58038289  0.71018317  0.62568167     0.93300
Mg4537     Mg  0.94077601  0.78680081  0.54933421     1.58000
O4538       O  0.93157183  0.80656840  0.50431290    -0.80300
O4539       O  0.95031570  0.76779566  0.59476944    -0.74600
O4540       O  0.55681230  0.80215426  0.62419873    -0.80400
O4541       O  0.58335688  0.68252633  0.53659355    -0.82100
O4542       O  0.94915658  0.70615037  0.98010039    -0.80400
C4543       C  0.97286149  0.76603374  0.61037301     0.87700
O4544       O  0.95409735  0.74641587  0.53163029    -0.87600
O4545       O  0.98280396  0.80106388  0.54534986    -0.87700
O4546       O  0.49101013  0.79491586  0.99946626    -0.74700
Mg4547     Mg  0.53632101  0.75747810  0.61588975     1.58000
O4548       O  0.52124255  0.83370609  0.62348738    -0.82100
H4549       H  0.50454921  0.67596121  0.58554265    -0.05800
O4550       O  0.51106351  0.73322577  0.00639652    -0.87400
H4551       H  0.53465892  0.75332264  0.97681491    -0.05700
H4552       H  0.92582308  0.72159697  0.55223524    -0.05800
C4553       C  0.53407515  0.74307047  0.99757700     0.87700
C4554       C  0.51507393  0.69656396  0.58415849     0.88300
C4555       C  0.94639086  0.72305783  0.54176028     0.88300
H4556       H  0.50258974  0.83073310  0.52155421    -0.05800
O4557       O  0.54471594  0.80693699  0.56493209    -0.74800
Mg4558     Mg  0.97158863  0.75007524  0.98997844     1.58000
H4559       H  0.58028582  0.78450644  0.55361996    -0.05800
C4560       C  0.57765351  0.67950119  0.01028604     0.93300
O4561       O  0.98744219  0.67956454  0.97747044    -0.82100
C4562       C  0.96043751  0.68167564  0.97649220     0.93400
O4563       O  0.57929693  0.73720049  0.62790444    -0.82100
Mg4564     Mg  0.50024531  0.81734337  0.58444573     1.58200
O4565       O  0.55219029  0.68225237  0.00056282    -0.80400
O4566       O  0.92956657  0.83019921  0.56891596    -0.82100
N4567       N  0.90673118  0.82813117  0.61324471    -0.02800
C4568       C  0.88477939  0.81045300  0.60571620    -0.00200
C4569       C  0.86505431  0.80832870  0.62743633    -0.23100
C4570       C  0.87455242  0.82579533  0.64901481    -0.23300
C4571       C  0.90005011  0.83806584  0.64004411    -0.00300
H4572       H  0.84528342  0.79618687  0.62716631     0.13500
H4573       H  0.86339922  0.82980233  0.66888673     0.13500
N4574       N  0.57663093  0.69287503  0.65109050    -0.02800
C4575       C  0.55907408  0.70064003  0.67287910    -0.00200
C4576       C  0.55657360  0.67890683  0.69268200    -0.23100
C4577       C  0.57370760  0.65704293  0.68340284    -0.23300
C4578       C  0.58613780  0.66591655  0.65799737    -0.00300
H4579       H  0.54443811  0.67936222  0.71237923     0.13500
H4580       H  0.57749226  0.63711604  0.69468022     0.13500
N4581       N  0.94330755  0.65622898  0.98031771    -0.02800
C4582       C  0.95086072  0.63469268  0.99844527    -0.00200
C4583       C  0.92918418  0.61476865  0.00057531    -0.23100
C4584       C  0.90765565  0.62376716  0.98263948    -0.23300
C4585       C  0.91664349  0.64915251  0.97013642    -0.00300
H4586       H  0.92949385  0.59514742  0.01295164     0.13500
H4587       H  0.88788318  0.61234871  0.97844182     0.13500
O4588       O  0.80553626  0.56531990  0.49735207    -0.87700
C4589       C  0.73682837  0.61644150  0.50776555     0.88400
Mg4590     Mg  0.80876916  0.53702519  0.96241123     1.58100
O4591       O  0.74163580  0.55934725  0.55565923    -0.87400
O4592       O  0.80687760  0.56450364  0.54450304    -0.74700
C4593       C  0.68086372  0.97794292  0.95687060     0.93400
O4594       O  0.76486881  0.59449457  0.94991119    -0.74500
O4595       O  0.70374642  0.97659195  0.94232789    -0.82100
Mg4596     Mg  0.79476668  0.60843056  0.48690845     1.58000
C4597       C  0.67944512  0.50820078  0.57561427     0.93300
O4598       O  0.82651162  0.62060024  0.52218364    -0.80300
H4599       H  0.76369878  0.53738173  0.58529807    -0.05700
C4600       C  0.69084821  0.54939449  0.98669155     0.88300
O4601       O  0.79482666  0.99986569  0.49178034    -0.74800
O4602       O  0.75948039  0.60468930  0.51542220    -0.87600
O4603       O  0.68680070  0.53439118  0.57640477    -0.80400
C4604       C  0.70715083  0.62564146  0.57977875     0.93400
C4605       C  0.82603161  0.62824990  0.54828036     0.93300
Mg4606     Mg  0.71307560  0.99824717  0.51937793     1.58000
O4607       O  0.68181943  0.98495337  0.48328343    -0.80300
O4608       O  0.74297608  0.01217729  0.55637894    -0.74600
O4609       O  0.73354265  0.62485163  0.57263835    -0.80400
O4610       O  0.83031761  0.61434372  0.95415126    -0.82100
O4611       O  0.77229541  0.98043587  0.93521281    -0.80400
C4612       C  0.74978896  0.53654440  0.56671367     0.87700
O4613       O  0.74771452  0.00133153  0.49091997    -0.87600
O4614       O  0.70247007  0.54151206  0.50936121    -0.87700
O4615       O  0.70026402  0.54198769  0.96218197    -0.74700
Mg4616     Mg  0.76992429  0.59414831  0.55867047     1.58000
O4617       O  0.69244530  0.60276949  0.58046307    -0.82100
H4618       H  0.83544726  0.54362121  0.51930975    -0.05800
O4619       O  0.76554713  0.54731038  0.95153610    -0.87400
H4620       H  0.74356259  0.56902457  0.92164699    -0.05700
H4621       H  0.76951238  0.97115487  0.51236092    -0.05800
C4622       C  0.75762570  0.57002312  0.94010802     0.87700
C4623       C  0.81686944  0.55743695  0.52014057     0.88300
C4624       C  0.77043237  0.98985082  0.49871383     0.88300
H4625       H  0.67250538  0.56350313  0.98775426    -0.05800
O4626       O  0.71233926  0.60694008  0.51516491    -0.74800
Mg4627     Mg  0.73693826  0.51205843  0.94788752     1.58000
H4628       H  0.73788059  0.63495982  0.49388329    -0.05800
C4629       C  0.82963629  0.59965099  0.93128033     0.93300
O4630       O  0.81262049  0.00433433  0.92682852    -0.82100
C4631       C  0.79841215  0.98107722  0.92758019     0.93400
O4632       O  0.80281354  0.62947689  0.56239363    -0.82100
Mg4633     Mg  0.69853901  0.56985470  0.54483583     1.58200
O4634       O  0.82255927  0.57325289  0.93195154    -0.80400
O4635       O  0.67804078  0.99429359  0.55221769    -0.82100
N4636       N  0.82999400  0.61406789  0.90390282    -0.02800
C4637       C  0.81397564  0.60543543  0.88101645    -0.00200
C4638       C  0.81516346  0.62519134  0.85916311    -0.23100
C4639       C  0.83280300  0.64673739  0.86846648    -0.23300
C4640       C  0.84186761  0.63968004  0.89593805    -0.00300
H4641       H  0.80492255  0.62368062  0.83834861     0.13500
H4642       H  0.83888764  0.66535697  0.85607854     0.13500
N4643       N  0.69278659  0.65313425  0.58037038    -0.02800
C4644       C  0.70170036  0.67615117  0.56488303    -0.00200
C4645       C  0.68215608  0.69818748  0.56612749    -0.23100
C4646       C  0.66033449  0.68889248  0.58318005    -0.23300
C4647       C  0.66703042  0.66125286  0.59184835    -0.00300
H4648       H  0.68391673  0.71906177  0.55616925     0.13500
H4649       H  0.64170936  0.70135403  0.58908063     0.13500
N4650       N  0.65343716  0.97850771  0.94226937    -0.02800
C4651       C  0.63089829  0.99476642  0.95099736    -0.00200
C4652       C  0.60917652  0.99452426  0.93089769    -0.23100
C4653       C  0.61815714  0.97721378  0.90904047    -0.23300
C4654       C  0.64527823  0.96742000  0.91629914    -0.00300
H4655       H  0.58862179  0.00516195  0.93238450     0.13500
H4656       H  0.60577109  0.97175510  0.89013494     0.13500
O4657       O  0.80927518  0.75132317  0.81565054    -0.87700
C4658       C  0.79936812  0.82000304  0.86646591     0.88400
Mg4659     Mg  0.84391258  0.74824260  0.78719097     1.58100
O4660       O  0.75145289  0.81530910  0.80921744    -0.87400
O4661       O  0.76216325  0.74985278  0.81479224    -0.74700
C4662       C  0.84984052  0.87563511  0.72679205     0.93400
O4663       O  0.85672535  0.79197653  0.84438225    -0.74500
O4664       O  0.86454230  0.85276062  0.72610073    -0.82100
Mg4665     Mg  0.82005700  0.76204376  0.85867916     1.58000
C4666       C  0.73095850  0.87825163  0.75829792     0.93300
O4667       O  0.78470761  0.73042138  0.87136321    -0.80300
H4668       H  0.72154202  0.79361249  0.78725770    -0.05700
C4669       C  0.82015994  0.86643269  0.79880178     0.88300
O4670       O  0.81400754  0.76216995  0.75019120    -0.74800
O4671       O  0.79144611  0.79729180  0.85503606    -0.87600
O4672       O  0.73047998  0.87059650  0.78439273    -0.80400
C4673       C  0.72736145  0.84963103  0.87529712     0.93400
C4674       C  0.75859192  0.73105941  0.87899912     0.93300
Mg4675     Mg  0.78706312  0.84414388  0.74789801     1.58000
O4676       O  0.82344849  0.87484744  0.73393313    -0.80300
O4677       O  0.75010960  0.81449889  0.76206584    -0.74600
O4678       O  0.73443814  0.82323281  0.87462605    -0.80400
O4679       O  0.85324989  0.72657901  0.86423010    -0.82100
O4680       O  0.87018181  0.78438276  0.73015908    -0.80400
C4681       C  0.74011943  0.80742847  0.78642806     0.87700
O4682       O  0.81534988  0.80934046  0.75090346    -0.87600
O4683       O  0.79750853  0.85467888  0.79114684    -0.87700
O4684       O  0.84464901  0.85693334  0.79139896    -0.74700
Mg4685     Mg  0.74822434  0.78700718  0.84416178     1.58000
O4686       O  0.72667763  0.86432291  0.85242616    -0.82100
H4687       H  0.78747986  0.72114172  0.79421389    -0.05800
O4688       O  0.85451226  0.79150813  0.79720290    -0.87400
H4689       H  0.88447668  0.81349795  0.81880841    -0.05700
H4690       H  0.79328192  0.78737126  0.72127091    -0.05800
C4691       C  0.86613663  0.79938669  0.81987226     0.87700
C4692       C  0.78655835  0.73983909  0.80785906     0.88300
C4693       C  0.80719431  0.78653603  0.73985354     0.88300
H4694       H  0.81910740  0.88495037  0.81268428    -0.05800
O4695       O  0.79212640  0.84447531  0.85666440    -0.74800
Mg4696     Mg  0.85844640  0.81984716  0.76172762     1.58000
H4697       H  0.81343136  0.81900230  0.88492722    -0.05800
C4698       C  0.87613420  0.72794244  0.84969169     0.93300
O4699       O  0.87894640  0.74429125  0.75435331    -0.82100
C4700       C  0.87753809  0.75819271  0.73095429     0.93400
O4701       O  0.74437666  0.75431311  0.87974389    -0.82100
Mg4702     Mg  0.76222431  0.85841927  0.81966303     1.58200
O4703       O  0.87517537  0.73495777  0.82328349    -0.80400
O4704       O  0.75417468  0.87947516  0.74418124    -0.82100
N4705       N  0.86420956  0.90312574  0.72620936    -0.02800
C4706       C  0.85530074  0.92613902  0.74170648    -0.00200
C4707       C  0.87484776  0.94817271  0.74046723    -0.23100
C4708       C  0.89666623  0.93888022  0.72340938    -0.23300
C4709       C  0.88996662  0.91124426  0.71473232    -0.00300
H4710       H  0.87309107  0.96904400  0.75043325     0.13500
H4711       H  0.91529313  0.95134090  0.71751224     0.13500
N4712       N  0.72700542  0.86404933  0.90267362    -0.02800
C4713       C  0.74302762  0.85542102  0.92555919    -0.00200
C4714       C  0.74183727  0.87517807  0.94741152    -0.23100
C4715       C  0.72419346  0.89672076  0.93810791    -0.23300
C4716       C  0.71512899  0.88966079  0.91063694    -0.00300
H4717       H  0.75207999  0.87367078  0.96822534     0.13500
H4718       H  0.71810754  0.91534090  0.95049458     0.13500
N4719       N  0.90355718  0.72852553  0.86429883    -0.02800
C4720       C  0.92608750  0.74479992  0.85557703    -0.00200
C4721       C  0.94780281  0.74457238  0.87568414    -0.23100
C4722       C  0.93882778  0.72725552  0.89753855    -0.23300
C4723       C  0.91171590  0.71744294  0.89027176    -0.00300
H4724       H  0.96835072  0.75522439  0.87420414     0.13500
H4725       H  0.95121161  0.72180588  0.91644839     0.13500
O4726       O  0.74206466  0.49765439  0.74989697    -0.87700
C4727       C  0.69151295  0.50722836  0.81872423     0.88400
Mg4728     Mg  0.77120356  0.96331691  0.74678568     1.58100
O4729       O  0.74733505  0.55655280  0.81419901    -0.87400
O4730       O  0.74227104  0.54479363  0.74870354    -0.74700
C4731       C  0.83093942  0.95944459  0.87500918     0.93400
O4732       O  0.71446057  0.94987804  0.79073405    -0.74500
O4733       O  0.83257382  0.94476050  0.85215138    -0.82100
Mg4734     Mg  0.69925687  0.48628485  0.76082568     1.58000
C4735       C  0.79867593  0.57796810  0.87757894     0.93300
O4736       O  0.68503605  0.52059544  0.72905881    -0.80300
H4737       H  0.76865837  0.58665658  0.79242736    -0.05700
C4738       C  0.75901695  0.98803440  0.86483156     0.88300
O4739       O  0.80780817  0.49357204  0.76089320    -0.74800
O4740       O  0.70259743  0.51521890  0.79595398    -0.87600
O4741       O  0.77243078  0.57837883  0.86992152    -0.80400
C4742       C  0.68027072  0.57977880  0.84784945     0.93400
C4743       C  0.67712063  0.54662114  0.72890129     0.93300
Mg4744     Mg  0.80947830  0.52167120  0.84290219     1.58000
O4745       O  0.82356390  0.48576030  0.87394430    -0.80300
O4746       O  0.79450206  0.55834051  0.81319116    -0.74600
O4747       O  0.68143630  0.57254759  0.82144055    -0.80400
O4748       O  0.69403938  0.95344027  0.72528111    -0.82100
O4749       O  0.82874330  0.93718694  0.78319027    -0.80400
C4750       C  0.76990104  0.56810550  0.80625630     0.87700
O4751       O  0.80681312  0.49294973  0.80804526    -0.87600
O4752       O  0.76649757  0.51092324  0.85351714    -0.87700
O4753       O  0.76688201  0.96368623  0.85523980    -0.74700
Mg4754     Mg  0.71248276  0.55864312  0.78540701     1.58000
O4755       O  0.70286167  0.58034804  0.86320878    -0.82100
H4756       H  0.76322612  0.51980958  0.72000754    -0.05800
O4757       O  0.76157404  0.95253193  0.79001379    -0.87400
H4758       H  0.74066971  0.92236823  0.81210922    -0.05700
H4759       H  0.83627061  0.51495397  0.78610820    -0.05800
C4760       C  0.73917709  0.94067782  0.79798630     0.87700
C4761       C  0.74951340  0.52050920  0.73858987     0.88300
C4762       C  0.81788332  0.50087505  0.78526563     0.88300
H4763       H  0.74484202  0.98874960  0.88305947    -0.05800
O4764       O  0.70107477  0.51504832  0.84315419    -0.74800
Mg4765     Mg  0.79699609  0.94967917  0.81866323     1.58000
H4766       H  0.67357225  0.49258818  0.81781404    -0.05800
C4767       C  0.70901340  0.93078566  0.72618550     0.93300
O4768       O  0.80468863  0.92843831  0.74282391    -0.82100
C4769       C  0.82800798  0.92937873  0.75705470     0.93400
O4770       O  0.67746275  0.56182663  0.75157885    -0.82100
Mg4771     Mg  0.73727855  0.54578845  0.85732016     1.58200
O4772       O  0.73547219  0.93192815  0.73314029    -0.80400
O4773       O  0.81307671  0.55481168  0.87825956    -0.82100
N4774       N  0.69480178  0.90329926  0.72650047    -0.02800
C4775       C  0.70353847  0.88096670  0.74299107    -0.00200
C4776       C  0.68377223  0.85906111  0.74255664    -0.23100
C4777       C  0.66206764  0.86777486  0.72478422    -0.23300
C4778       C  0.66915948  0.89490632  0.71498820    -0.00300
H4779       H  0.68537473  0.83860729  0.75339193     0.13500
H4780       H  0.64340333  0.85520830  0.71902462     0.13500
N4781       N  0.65239317  0.58149775  0.86121192    -0.02800
C4782       C  0.62945271  0.56611949  0.85201034    -0.00200
C4783       C  0.60648346  0.56894541  0.87011618    -0.23100
C4784       C  0.61515516  0.58686195  0.89152503    -0.23300
C4785       C  0.64333062  0.59436255  0.88591807    -0.00300
H4786       H  0.58573784  0.55873422  0.86810006     0.13500
H4787       H  0.60208918  0.59379023  0.90932777     0.13500
N4788       N  0.83033855  0.94504737  0.90247647    -0.02800
C4789       C  0.81375587  0.95371588  0.92472575    -0.00200
C4790       C  0.81419685  0.93400423  0.94666859    -0.23100
C4791       C  0.83193987  0.91237669  0.93813799    -0.23300
C4792       C  0.84177633  0.91941692  0.91106412    -0.00300
H4793       H  0.80339361  0.93561849  0.96707174     0.13500
H4794       H  0.83768139  0.89379607  0.95081902     0.13500
C4795       C  0.65400642  0.64898707  0.94178079     0.80900
N4796       N  0.67823034  0.66223742  0.93241218    -0.77400
C4797       C  0.69280314  0.65202548  0.90956652     0.83300
N4798       N  0.68243469  0.62868404  0.89536291    -0.77400
C4799       C  0.65834738  0.61531543  0.90431891     0.83400
N4800       N  0.64412287  0.62579701  0.92746607    -0.79100
loop_ 
_geom_bond_atom_site_label_1 
_geom_bond_atom_site_label_2 
_geom_bond_distance 
_geom_bond_site_symmetry_2 
_ccdc_geom_bond_type 
C1            N2   1.354       .  A
C1            N6   1.362       .  A
C1          C316   1.476       .  S
N2            C3   1.362       .  A
C3            N4   1.354       .  A
C3          C592   1.480       .  S
N4            C5   1.363       .  A
C5            N6   1.352       .  A
C5          C178   1.478       .  S
C7            N8   1.356       .  A
C7           N12   1.361       .  A
C7          C578   1.479       .  S
N8            C9   1.363       .  A
C9           N10   1.353       .  A
C9          C109   1.480       .  S
N10          C11   1.361       .  A
C11          N12   1.352       .  A
C11         C171   1.475       .  S
C13          N14   1.358       .  A
C13          N18   1.365       .  A
C13         C371   1.489       .  S
N14          C15   1.368       .  A
C15          N16   1.355       .  A
C15         C247   1.486       .  S
N16          C17   1.364       .  A
C17          N18   1.356       .  A
C17         C509   1.487       .  S
C19          N20   1.368       .  A
C19          N24   1.355       .  A
C19         C378   1.486       .  S
N20          C21   1.358       .  A
C21          N22   1.365       .  A
C21         C240   1.489       .  S
N22          C23   1.356       .  A
C23          N24   1.364       .  A
C23         C447   1.487       .  S
C25          N26   1.361       .  A
C25          N30   1.352       .  A
C25         C102   1.475       .  S
N26          C27   1.353       .  A
C27          N28   1.363       .  A
C27         C164   1.480       .  S
N28          C29   1.356       .  A
C29          N30   1.361       .  A
C29         C309   1.479       .  S
C31          N32   1.365       .  A
C31          N36   1.355       .  A
C31         C523   1.484       .  S
N32          C33   1.357       .  A
C33          N34   1.367       .  A
C33         C385   1.487       .  S
N34          C35   1.358       .  A
C35          N36   1.362       .  A
C35         C440   1.489       .  S
C37          N38   1.367       .  A
C37          N42   1.357       .  A
C37         C233   1.487       .  S
N38          C39   1.358       .  A
C39          N40   1.362       .  A
C39         C516   1.489       .  S
N40          C41   1.355       .  A
C41          N42   1.365       .  A
C41         C454   1.484       .  S
O43         Mg45   2.102       .  S
O43         Mg51   2.131       .  S
O43          C78   1.240       .  S
C44          O57   1.242       .  S
C44          O81   1.276       .  A
C44          H83   1.081       .  S
Mg45       O2474   2.138       .  S
Mg45         O89   2.323       .  S
Mg45       O1285   2.272       .  S
Mg45       O1256   2.303       .  S
O46         Mg88   2.131       .  S
O46         Mg71   2.111       .  S
O46          C67   1.241       .  S
O47         C678   1.274       .  A
O47       Mg2471   2.303       .  S
C48          O50   1.268       .  A
C48          O62   1.278       .  A
C48         N105   1.446       .  S
O49          C77   1.275       .  A
O49       Mg2451   2.307       .  S
O50         Mg82   2.274       .  S
Mg51       O2457   2.133       .  S
Mg51         O65   2.278       .  S
Mg51         O53   2.286       .  S
Mg51       O2449   2.307       .  S
C52         C451   1.475       .  S
C52          O90   1.274       .  A
C52        O1258   1.274       .  A
O53         C660   1.270       .  A
H54          C67   1.081       .  S
C55          O69   1.242       .  S
C55          O70   1.275       .  A
C55          H80   1.081       .  S
O56        C2479   1.274       .  A
O56       Mg1245   2.303       .  S
O57       Mg2451   2.133       .  S
O57        Mg671   2.135   1_554  S
O58        C1252   1.274       .  A
O58         Mg88   2.306       .  S
C59          O72   1.271       .  A
C59          O64   1.280       .  A
C59          N91   1.448       .  S
C60         C382   1.477       .  S
C60          O87   1.275       .  A
C60         O653   1.270       .  A
Mg61         O68   2.107       .  S
Mg61       O1269   2.130       .  S
Mg61         O62   2.314       .  S
Mg61        O663   2.310   1_554  S
Mg61        O690   2.272       .  S
O63        C1267   1.275       .  A
O63        Mg661   2.310       .  S
O64         Mg71   2.319       .  S
O65          C84   1.269       .  A
O66        C2486   1.269       .  A
O66         Mg82   2.272       .  S
C67        O1263   1.275       .  A
O68         Mg82   2.133       .  S
O68          C79   1.240       .  S
O69       Mg1261   2.130   1_545  S
O69        Mg688   2.127       .  S
O70       Mg1282   2.307       .  S
Mg71        O657   2.135       .  S
Mg71       O2447   2.303   1_455  S
Mg71       O2487   2.272       .  S
O72         Mg88   2.290       .  S
H73          C78   1.081       .  S
O74       Mg2445   2.138   1_455  S
O74       Mg1282   2.129       .  S
O74          C77   1.241       .  S
H75          C77   1.081       .  S
H76          C79   1.081       .  S
C78         O647   1.274       .  A
C79        O2456   1.274       .  A
O81        Mg688   2.312       .  S
Mg82       O1274   2.129       .  S
Mg82       O1270   2.307       .  S
C84          O89   1.281       .  A
C84          N98   1.445       .  S
O85          C86   1.275       .  A
O85       Mg1245   2.272       .  S
C86         C244   1.475       .  S
C86        O2466   1.269       .  A
O87       Mg2471   2.272       .  S
Mg88        O669   2.127       .  S
Mg88        O681   2.312       .  S
O90        Mg661   2.272       .  S
N91          C95   1.370       .  A
N91          C92   1.357       .  A
C92         C360   1.463       .  S
C92          C93   1.375       .  A
C93          H96   1.083       .  S
C93          C94   1.364       .  A
C94          H97   1.083       .  S
C94          C95   1.386       .  A
C95         C595   1.478       .  S
N98         C102   1.367       .  A
N98          C99   1.353       .  A
C99         C186   1.458       .  S
C99         C100   1.376       .  A
C100        H103   1.082       .  S
C100        C101   1.365       .  A
C101        H104   1.083       .  S
C101        C102   1.387       .  A
N105        C109   1.368       .  A
N105        C106   1.357       .  A
C106       C1597   1.468       .  S
C106        C107   1.377       .  A
C107        H110   1.082       .  S
C107        C108   1.368       .  A
C108        H111   1.083       .  S
C108        C109   1.386       .  A
O112       Mg114   2.111   1_655  S
O112      Mg2520   2.131       .  S
O112        C147   1.241   1_655  S
C113        O126   1.242       .  S
C113        O150   1.275       .  A
C113        H152   1.081       .  S
Mg114       O143   2.135       .  S
Mg114       O158   2.319   1_455  S
Mg114       O154   2.272       .  S
Mg114       O125   2.303       .  S
O115       Mg157   2.133       .  S
O115      Mg2540   2.107       .  S
O115        C136   1.240   1_655  S
O116        C147   1.275   1_655  A
O116      Mg2540   2.310       .  S
C117        O119   1.269       .  A
C117        O131   1.281       .  A
C117        N167   1.445       .  S
O118        C146   1.276       .  A
O118       Mg120   2.312       .  S
O119       Mg151   2.278       .  S
Mg120       O126   2.127       .  S
Mg120      O2512   2.131       .  S
Mg120       O134   2.290       .  S
Mg120       O122   2.306       .  S
C121        C375   1.475       .  S
C121        O159   1.275       .  A
C121        O127   1.269       .  A
O122        C129   1.274       .  A
H123        C136   1.081       .  S
C124        O138   1.241       .  S
C124        O139   1.275       .  A
C124        H149   1.081   1_455  S
O125        C148   1.274       .  A
O126       Mg140   2.130       .  S
O127       Mg157   2.273   1_455  S
C128        O141   1.268       .  A
C128        O133   1.278       .  A
C128        N160   1.446       .  S
C129        C520   1.476       .  S
C129        O156   1.274       .  A
Mg130       O137   2.102       .  S
Mg130       O138   2.138       .  S
Mg130       O131   2.323       .  S
Mg130       O132   2.303       .  S
Mg130       O159   2.272       .  S
O132        C136   1.274       .  A
O133       Mg140   2.314       .  S
O134        C153   1.271       .  A
O135        C155   1.270       .  A
O135       Mg151   2.286       .  S
O137       Mg151   2.131       .  S
O137        C148   1.240       .  S
O138       Mg157   2.129   1_455  S
O139       Mg151   2.307       .  S
Mg140      O2515   2.107       .  S
Mg140       O156   2.272       .  S
Mg140      O2516   2.310       .  S
O141      Mg2557   2.274       .  S
H142        C147   1.081       .  S
O143       Mg151   2.133       .  S
O143       C2546   1.242   1_455  S
H144        C146   1.081       .  S
H145        C148   1.081       .  S
C146       O2543   1.242       .  S
O150      Mg2557   2.307       .  S
C153       O2558   1.280       .  A
C153        N174   1.448       .  S
O154        C155   1.275       .  A
C155        C230   1.477       .  S
Mg157      O2541   2.274       .  S
Mg157      O2550   2.307       .  S
O158       C2553   1.280       .  A
N160        C164   1.368       .  A
N160        C161   1.357       .  A
C161        C500   1.468       .  S
C161        C162   1.377       .  A
C162        H165   1.082       .  S
C162        C163   1.368       .  A
C163        H166   1.083       .  S
C163        C164   1.386       .  A
N167        C171   1.367       .  A
N167        C168   1.353       .  A
C168        C335   1.458       .  S
C168        C169   1.375       .  A
C169        H172   1.082       .  S
C169        C170   1.365       .  A
C170        H173   1.083       .  S
C170        C171   1.387       .  A
N174        C178   1.370       .  A
N174        C175   1.357       .  A
C175        C197   1.463       .  S
C175        C176   1.375       .  A
C176        H179   1.083       .  S
C176        C177   1.364       .  A
C177        H180   1.083       .  S
C177        C178   1.386       .  A
O181       Mg183   2.151   1_565  S
O181       Mg189   2.119   1_565  S
O181       C1416   1.242       .  S
C182       O1395   1.240       .  S
C182       O2619   1.276   1_455  A
C182        H221   1.081   1_565  S
Mg183       O212   2.080       .  S
Mg183       O227   2.333       .  S
Mg183       O223   2.284       .  S
Mg183       O194   2.339       .  S
O184       Mg209   2.144       .  S
O184      Mg2626   2.117   1_455  S
O184        C205   1.242       .  S
O185        C216   1.280       .  A
O185       Mg209   2.344       .  S
C186        O200   1.275       .  A
C186       O2588   1.263       .  A
O187        C215   1.275       .  A
O187       Mg189   2.322       .  S
O188       C2586   1.263       .  A
O188       Mg220   2.201       .  S
Mg189      O1395   2.141   1_545  S
Mg189       O203   2.207       .  S
Mg189      O1391   2.346   1_545  S
C190        O228   1.266       .  A
C190        O196   1.270       .  A
C190        N243   1.446       .  S
O191        C198   1.269       .  A
O191      Mg1389   2.346       .  S
H192        C205   1.082       .  S
C193        O207   1.241       .  S
C193       O2608   1.276       .  A
C193        H218   1.081       .  S
O194        C217   1.279       .  A
O195       Mg209   2.082       .  S
O195      Mg1389   2.141       .  S
O195       C1382   1.240       .  S
O196       Mg226   2.354       .  S
C197        O210   1.263       .  A
C197       O2602   1.276       .  A
C198        O225   1.265       .  A
C198        N229   1.443       .  S
Mg199       O206   2.149       .  S
Mg199      O2607   2.080       .  S
Mg199      O2600   2.325       .  S
Mg199      O1401   2.338   1_545  S
Mg199      O3828   2.285   1_445  S
O200      Mg2599   2.325       .  S
O201        C205   1.279       .  A
O201      Mg1399   2.338       .  S
O202       C2597   1.276   1_455  A
O202       Mg209   2.335       .  S
O203        C222   1.263       .  A
O204        C224   1.270       .  A
O204       Mg220   2.351       .  S
O206       Mg220   2.120       .  S
O206        C217   1.242       .  S
O207      Mg2599   2.080       .  S
O207      Mg1426   2.134   1_545  S
O208       C2593   1.276   1_455  A
O208       Mg220   2.322       .  S
Mg209       O225   2.278       .  S
O210       Mg226   2.207       .  S
H211        C216   1.082       .  S
O212       Mg220   2.134       .  S
O212        C215   1.240       .  S
H213        C215   1.081       .  S
H214        C217   1.082       .  S
C216       O1381   1.242       .  S
O219       C2582   1.276       .  A
O219      Mg1426   2.325       .  S
C222        C582   1.460       .  S
C222        O227   1.276       .  A
O223        C224   1.266       .  A
C224        N236   1.444       .  S
Mg226      O2584   2.117       .  S
Mg226      O1407   2.134       .  S
Mg226      O1419   2.325       .  S
O228      Mg3799   2.285       .  S
N229        C233   1.370       .  A
N229        C230   1.359       .  A
C230        C231   1.378       .  A
C231        H234   1.083       .  S
C231        C232   1.370       .  A
C232        H235   1.082       .  S
C232        C233   1.386       .  A
N236        C240   1.371       .  A
N236        C237   1.360       .  A
C237        C543   1.476       .  S
C237        C238   1.377       .  A
C238        H241   1.083       .  S
C238        C239   1.368       .  A
C239        H242   1.082       .  S
C239        C240   1.387       .  A
N243        C247   1.372       .  A
N243        C244   1.359       .  A
C244        C245   1.378       .  A
C245        H248   1.083       .  S
C245        C246   1.368       .  A
C246        H249   1.083       .  S
C246        C247   1.386       .  A
O250       Mg252   2.106   1_556  S
O250       Mg858   2.129       .  S
O250        C285   1.241   1_556  S
C251        O264   1.242       .  S
C251        O288   1.276       .  A
C251        H290   1.081       .  S
Mg252       O281   2.136       .  S
Mg252       O296   2.319   1_554  S
Mg252       O292   2.271       .  S
Mg252       O263   2.305       .  S
O253       Mg295   2.130       .  S
O253       Mg878   2.111       .  S
O253        C274   1.241   1_556  S
O254        C285   1.275   1_556  A
O254       Mg878   2.308       .  S
C255        O257   1.268       .  A
C255        O269   1.276       .  A
C255        N305   1.444       .  S
O256        C284   1.275       .  A
O256       Mg258   2.310       .  S
O257       Mg289   2.271       .  S
Mg258       O264   2.131       .  S
Mg258       O850   2.129       .  S
Mg258       O272   2.294       .  S
Mg258       O260   2.311       .  S
C259        C444   1.472       .  S
C259        O297   1.272       .  A
C259        O265   1.273       .  A
O260        C267   1.274       .  A
H261        C274   1.081       .  S
C262        O276   1.241       .  S
C262        O277   1.275       .  A
C262        H287   1.081   1_554  S
O263        C286   1.274       .  A
O264       Mg278   2.128       .  S
O265       Mg295   2.303   1_554  S
C266        O279   1.271       .  A
C266        O271   1.276       .  A
C266        N298   1.448       .  S
C267        C513   1.475       .  S
C267        O294   1.273       .  A
Mg268       O275   2.107       .  S
Mg268       O276   2.130       .  S
Mg268       O269   2.306       .  S
Mg268       O270   2.309       .  S
Mg268       O297   2.264       .  S
O270        C274   1.275       .  A
O271       Mg278   2.308       .  S
O272        C291   1.272       .  A
O273        C293   1.269       .  A
O273       Mg289   2.278       .  S
O275       Mg289   2.131       .  S
O275        C286   1.240       .  S
O276       Mg295   2.124   1_554  S
O277       Mg289   2.308       .  S
Mg278       O853   2.111       .  S
Mg278       O294   2.267       .  S
Mg278       O854   2.308       .  S
O279       Mg895   2.285       .  S
H280        C285   1.081       .  S
O281       Mg289   2.129       .  S
O281        C884   1.242   1_554  S
H282        C284   1.081       .  S
H283        C286   1.081       .  S
C284        O881   1.242       .  S
O288       Mg895   2.311       .  S
C291        O896   1.279       .  A
C291        N312   1.448       .  S
O292        C293   1.274       .  A
C293        C368   1.476       .  S
Mg295       O879   2.285       .  S
Mg295       O888   2.311       .  S
O296        C891   1.279       .  A
N298        C302   1.369       .  A
N298        C299   1.360       .  A
C299        C474   1.470       .  S
C299        C300   1.377       .  A
C300        H303   1.083       .  S
C300        C301   1.366       .  A
C301        H304   1.083       .  S
C301        C302   1.386       .  A
C302        C597   1.480       .  S
N305        C309   1.366       .  A
N305        C306   1.357       .  A
C306        C405   1.467       .  S
C306        C307   1.377       .  A
C307        H310   1.083       .  S
C307        C308   1.367       .  A
C308        H311   1.083       .  S
C308        C309   1.387       .  A
N312        C316   1.369       .  A
N312        C313   1.357       .  A
C313        C324   1.460       .  S
C313        C314   1.375       .  A
C314        H317   1.083       .  S
C314        C315   1.363       .  A
C315        H318   1.083       .  S
C315        C316   1.387       .  A
O319       Mg321   2.144       .  S
O319       Mg327   2.117       .  S
O319        C354   1.242       .  S
C320        O333   1.241       .  S
C320        O357   1.276       .  A
C320        H359   1.081       .  S
Mg321       O950   2.082       .  S
Mg321       O965   2.336       .  S
Mg321      O3361   2.278   1_454  S
Mg321      O2732   2.344   1_455  S
O322       Mg364   2.120   1_655  S
O322       Mg347   2.149   1_655  S
O322       C2743   1.242       .  S
O323        C354   1.279       .  A
O323       Mg347   2.338       .  S
C324        O326   1.263       .  A
C324        O938   1.276       .  A
O325        C953   1.276   1_554  A
O325       Mg327   2.325       .  S
O326       Mg358   2.207       .  S
Mg327       O333   2.135       .  S
Mg327       O341   2.207       .  S
Mg327       O329   2.353       .  S
C328        O366   1.266       .  A
C328        O334   1.270       .  A
C328        N367   1.444       .  S
O329        C336   1.270       .  A
H330        C343   1.082       .  S
C331       O2745   1.240       .  S
C331        O946   1.275   1_554  A
C331        H356   1.081   1_655  S
O332        C355   1.280       .  A
O332      Mg2721   2.344       .  S
O333       Mg347   2.080       .  S
O334      Mg2764   2.351       .  S
C335        O348   1.263       .  A
C335        O340   1.275       .  A
C336        O363   1.266       .  A
C336        N374   1.446       .  S
Mg337       O344   2.151       .  S
Mg337       O345   2.080       .  S
Mg337       O338   2.333       .  S
Mg337       O339   2.339       .  S
Mg337       O366   2.284       .  S
O338        C924   1.276   1_554  A
O339        C343   1.279       .  A
O340       Mg347   2.325       .  S
O341        C960   1.263       .  A
O342        C362   1.269       .  A
O342       Mg358   2.346       .  S
C343       O2722   1.242       .  S
O344       Mg958   2.119   1_554  S
O344        C355   1.242       .  S
O345      Mg2764   2.134       .  S
O345       C2731   1.240       .  S
O346        C931   1.275       .  A
O346      Mg2758   2.322       .  S
Mg347       O363   2.285       .  S
O348       Mg364   2.201       .  S
H349        C354   1.082       .  S
O350       Mg921   2.082       .  S
O350      Mg2758   2.141   1_455  S
O350        C353   1.240       .  S
H351        C353   1.081       .  S
H352        C355   1.082       .  S
C353        O925   1.276       .  A
O357       Mg364   2.322       .  S
Mg358       O944   2.119       .  S
Mg358      O2750   2.141       .  S
Mg358      O2746   2.322       .  S
C360        O365   1.276       .  A
C360        O941   1.263       .  A
O361        C362   1.265       .  A
O361      Mg3321   2.278       .  S
C362        N381   1.443       .  S
Mg364      O2745   2.134   1_455  S
Mg364      O2734   2.351   1_455  S
O365       Mg921   2.335       .  S
N367        C371   1.371       .  A
N367        C368   1.360       .  A
C368        C369   1.377       .  A
C369        H372   1.083       .  S
C369        C370   1.368       .  A
C370        H373   1.082       .  S
C370        C371   1.387       .  A
N374        C378   1.372       .  A
N374        C375   1.359       .  A
C375        C376   1.378       .  A
C376        H379   1.083       .  S
C376        C377   1.368       .  A
C377        H380   1.083       .  S
C377        C378   1.386       .  A
N381        C385   1.370       .  A
N381        C382   1.359       .  A
C382        C383   1.378       .  A
C383        H386   1.083       .  S
C383        C384   1.370       .  A
C384        H387   1.082       .  S
C384        C385   1.386       .  A
O388       Mg396   2.129       .  S
O388       Mg990   2.105       .  S
O388        C423   1.241   1_556  S
C389        O402   1.242       .  S
C389        O426   1.275       .  A
C389        H428   1.081   1_554  S
Mg390       O419   2.132       .  S
Mg390       O988   2.105       .  S
Mg390       O434   2.303       .  S
Mg390      O1630   2.263       .  S
Mg390      O2201   2.306   1_545  S
O391       Mg433   2.128       .  S
O391       Mg416   2.097       .  S
O391        C412   1.241       .  S
O392        C423   1.275       .  A
O392       Mg416   2.310       .  S
C393        O395   1.270       .  A
C393       O1007   1.276       .  A
C393        N450   1.447       .  S
O394        C422   1.275       .  A
O394       Mg996   2.308       .  S
O395      Mg1627   2.280       .  S
Mg396       O402   2.130   1_556  S
Mg396       O398   2.280   1_556  S
Mg396       O994   2.308       .  S
Mg396      O1010   2.279       .  S
C397       C1306   1.468   1_545  S
C397        O403   1.270       .  A
C397       O1635   1.272   1_545  A
O398        C405   1.270       .  A
H399        C412   1.081       .  S
C400       O1014   1.242       .  S
C400        O415   1.275       .  A
C400        H425   1.081       .  S
O401        C424   1.274       .  A
O401      Mg2190   2.306       .  S
O402       Mg416   2.131       .  S
O403       Mg433   2.284       .  S
C404        O417   1.269       .  A
C404        O409   1.278       .  A
C404        N443   1.448       .  S
C405        O432   1.272       .  A
Mg406       O413   2.103   1_554  S
Mg406      O1614   2.130       .  S
Mg406       O407   2.307   1_554  S
Mg406       O408   2.308       .  S
Mg406       O435   2.255       .  S
O407        C993   1.276       .  A
O408       C1612   1.275       .  A
O409       Mg416   2.318       .  S
O410        C429   1.269       .  A
O410       Mg996   2.279       .  S
O411        C431   1.272       .  A
O411      Mg1627   2.294       .  S
C412       O1608   1.275       .  A
O413      Mg2227   2.127       .  S
O413        C424   1.240       .  S
O414       Mg433   2.128       .  S
O414      Mg1606   2.130   1_545  S
O414       C1000   1.242   1_554  S
O415       Mg427   2.310       .  S
Mg416       O432   2.258       .  S
O417       Mg433   2.283       .  S
H418        C423   1.081       .  S
O419       Mg427   2.125       .  S
O419        C422   1.242       .  S
H420        C422   1.081       .  S
H421        C424   1.081   1_554  S
O426       Mg433   2.310       .  S
Mg427      O2213   2.127       .  S
Mg427      O1595   2.280   1_545  S
Mg427      O1611   2.294   1_545  S
C429        O434   1.276       .  A
C429        N436   1.444       .  S
O430        C431   1.272       .  A
O430      Mg1590   2.263       .  S
C431        C589   1.470       .  S
O435       C1597   1.272       .  A
N436        C440   1.370       .  A
N436        C437   1.361       .  A
C437        C535   1.475       .  S
C437        C438   1.376       .  A
C438        H441   1.083       .  S
C438        C439   1.369       .  A
C439        H442   1.082       .  S
C439        C440   1.388       .  A
N443        C447   1.372       .  A
N443        C444   1.361       .  A
C444        C445   1.376       .  A
C445        H448   1.083       .  S
C445        C446   1.367       .  A
C446        H449   1.083       .  S
C446        C447   1.387       .  A
N450        C454   1.370       .  A
N450        C451   1.361       .  A
C451        C452   1.377       .  A
C452        H455   1.083       .  S
C452        C453   1.369       .  A
C453        H456   1.083       .  S
C453        C454   1.386       .  A
O457       Mg459   2.103       .  S
O457       Mg465   2.127       .  S
O457        C492   1.240       .  S
C458        O471   1.242       .  S
C458        O495   1.275       .  A
C458        H497   1.081       .  S
Mg459       O488   2.130       .  S
Mg459       O503   2.307       .  S
Mg459       O499   2.255       .  S
Mg459       O470   2.308       .  S
O460       Mg502   2.129       .  S
O460       Mg485   2.105       .  S
O460        C481   1.241       .  S
O461        C492   1.274       .  A
O461       Mg485   2.306       .  S
C462        O464   1.269       .  A
C462        O476   1.278       .  A
C462        N505   1.448       .  S
O463        C491   1.275       .  A
O463       Mg465   2.310       .  S
O464       Mg496   2.283       .  S
Mg465       O471   2.125       .  S
Mg465       O479   2.280       .  S
Mg465       O467   2.293       .  S
C466        C575   1.467       .  S
C466        O504   1.272       .  A
C466        O472   1.270       .  A
O467        C474   1.272       .  A
H468        C481   1.081       .  S
C469        O483   1.242       .  S
C469        O484   1.275       .  A
C469        H494   1.081       .  S
O470        C493   1.275       .  A
O471       Mg485   2.132       .  S
O472       Mg502   2.280       .  S
C473        O486   1.269       .  A
C473        O478   1.276       .  A
C473        N512   1.444       .  S
C474        O501   1.272       .  A
Mg475       O482   2.097       .  S
Mg475       O483   2.131       .  S
Mg475       O476   2.318       .  S
Mg475       O477   2.310       .  S
Mg475       O504   2.258       .  S
O477        C481   1.275       .  A
O478       Mg485   2.303       .  S
O479        C498   1.270       .  A
O480        C500   1.270       .  A
O480       Mg496   2.284       .  S
O482       Mg496   2.128       .  S
O482        C493   1.241       .  S
O483       Mg502   2.130       .  S
O484       Mg496   2.310       .  S
Mg485       O501   2.263       .  S
O486       Mg502   2.279       .  S
H487        C492   1.081       .  S
O488       Mg496   2.128       .  S
O488        C491   1.242       .  S
H489        C491   1.081       .  S
H490        C493   1.081       .  S
O495       Mg502   2.308       .  S
C498        O503   1.276       .  A
C498        N519   1.447       .  S
O499        C500   1.272       .  A
N505        C509   1.372       .  A
N505        C506   1.361       .  A
C506        C569   1.472       .  S
C506        C507   1.376       .  A
C507        H510   1.083       .  S
C507        C508   1.367       .  A
C508        H511   1.083       .  S
C508        C509   1.387       .  A
N512        C516   1.370       .  A
N512        C513   1.361       .  A
C513        C514   1.376       .  A
C514        H517   1.083       .  S
C514        C515   1.369       .  A
C515        H518   1.082       .  S
C515        C516   1.388       .  A
N519        C523   1.370       .  A
N519        C520   1.361       .  A
C520        C521   1.377       .  A
C521        H524   1.083       .  S
C521        C522   1.369       .  A
C522        H525   1.083       .  S
C522        C523   1.386       .  A
O526       Mg534   2.131       .  S
O526      Mg1728   2.107       .  S
O526        C561   1.240   1_565  S
C527        O540   1.242       .  S
C527        O564   1.275       .  A
C527        H566   1.081   1_545  S
Mg528       O557   2.130       .  S
Mg528      O1726   2.107       .  S
Mg528       O572   2.306       .  S
Mg528       O568   2.264       .  S
Mg528      O1739   2.309       .  S
O529       Mg571   2.129       .  S
O529       Mg554   2.106       .  S
O529        C550   1.241       .  S
O530        C561   1.274       .  A
O530       Mg554   2.305       .  S
C531        O533   1.271       .  A
C531       O1745   1.276       .  A
C531        N588   1.448       .  S
O532        C560   1.275       .  A
O532      Mg1734   2.308       .  S
O533       Mg565   2.285       .  S
Mg534       O540   2.129   1_565  S
Mg534       O536   2.278   1_565  S
Mg534      O1732   2.308       .  S
Mg534      O1748   2.271       .  S
C535        O573   1.273       .  A
C535        O541   1.274       .  A
O536        C543   1.269       .  A
H537        C550   1.081       .  S
C538       O1752   1.242       .  S
C538        O553   1.276       .  A
C538        H563   1.081       .  S
O539        C562   1.275   1_565  A
O539      Mg1728   2.309       .  S
O540       Mg554   2.136       .  S
O541       Mg571   2.311       .  S
C542        O555   1.272       .  A
C542        O547   1.279       .  A
C542        N581   1.448       .  S
C543        O570   1.274       .  A
Mg544       O551   2.111   1_545  S
Mg544       O552   2.128       .  S
Mg544       O545   2.308   1_545  S
Mg544       O546   2.308       .  S
Mg544       O573   2.267       .  S
O545       C1731   1.276       .  A
O546        C550   1.275       .  A
O547       Mg554   2.319       .  S
O548        C567   1.268       .  A
O548      Mg1734   2.271       .  S
O549        C569   1.273       .  A
O549       Mg565   2.303       .  S
O551      Mg1765   2.130       .  S
O551        C562   1.241   1_565  S
O552       Mg571   2.131       .  S
O552       C1738   1.242   1_545  S
O553       Mg565   2.311       .  S
Mg554       O570   2.271       .  S
O555       Mg571   2.294       .  S
H556        C561   1.081       .  S
O557       Mg565   2.124       .  S
O557        C560   1.241       .  S
H558        C560   1.081       .  S
H559        C562   1.081       .  S
O564       Mg571   2.310       .  S
Mg565      O1751   2.130       .  S
C567        O572   1.276       .  A
C567        N574   1.444       .  S
O568        C569   1.272       .  A
N574        C578   1.366       .  A
N574        C575   1.357       .  A
C575        C576   1.377       .  A
C576        H579   1.083       .  S
C576        C577   1.367       .  A
C577        H580   1.083       .  S
C577        C578   1.387       .  A
N581        C585   1.369       .  A
N581        C582   1.357       .  A
C582        C583   1.375       .  A
C583        H586   1.083       .  S
C583        C584   1.363       .  A
C584        H587   1.083       .  S
C584        C585   1.387       .  A
C585        C599   1.476       .  S
N588        C592   1.369       .  A
N588        C589   1.360       .  A
C589        C590   1.377       .  A
C590        H593   1.083       .  S
C590        C591   1.366       .  A
C591        H594   1.083       .  S
C591        C592   1.386       .  A
C595        N596   1.363       .  A
C595        N600   1.352       .  A
N596        C597   1.354       .  A
C597        N598   1.362       .  A
N598        C599   1.354       .  A
C599        N600   1.362       .  A
C601        N602   1.354       .  A
C601        N606   1.362       .  A
C601        C916   1.476       .  S
N602        C603   1.362       .  A
C603        N604   1.354       .  A
C603       C1192   1.480       .  S
N604        C605   1.363       .  A
C605        N606   1.352       .  A
C605        C778   1.478       .  S
C607        N608   1.356       .  A
C607        N612   1.361       .  A
C607       C1178   1.479       .  S
N608        C609   1.363       .  A
C609        N610   1.353       .  A
C609        C709   1.480       .  S
N610        C611   1.361       .  A
C611        N612   1.352       .  A
C611        C771   1.475       .  S
C613        N614   1.358       .  A
C613        N618   1.365       .  A
C613        C971   1.489       .  S
N614        C615   1.368       .  A
C615        N616   1.355       .  A
C615        C847   1.486       .  S
N616        C617   1.364       .  A
C617        N618   1.356       .  A
C617       C1109   1.487       .  S
C619        N620   1.368       .  A
C619        N624   1.355       .  A
C619        C978   1.486       .  S
N620        C621   1.358       .  A
C621        N622   1.365       .  A
C621        C840   1.489       .  S
N622        C623   1.356       .  A
C623        N624   1.364       .  A
C623       C1047   1.487       .  S
C625        N626   1.361       .  A
C625        N630   1.352       .  A
C625        C702   1.475       .  S
N626        C627   1.353       .  A
C627        N628   1.363       .  A
C627        C764   1.480       .  S
N628        C629   1.356       .  A
C629        N630   1.361       .  A
C629        C909   1.479       .  S
C631        N632   1.365       .  A
C631        N636   1.355       .  A
C631       C1123   1.484       .  S
N632        C633   1.357       .  A
C633        N634   1.367       .  A
C633        C985   1.487       .  S
N634        C635   1.358       .  A
C635        N636   1.362       .  A
C635       C1040   1.489       .  S
C637        N638   1.367       .  A
C637        N642   1.357       .  A
C637        C833   1.487       .  S
N638        C639   1.358       .  A
C639        N640   1.362       .  A
C639       C1116   1.489       .  S
N640        C641   1.355       .  A
C641        N642   1.365       .  A
C641       C1054   1.484       .  S
O643       Mg645   2.102       .  S
O643       Mg651   2.131       .  S
O643        C678   1.240       .  S
C644        O657   1.242       .  S
C644        O681   1.276       .  A
C644        H683   1.081       .  S
Mg645      O3074   2.138       .  S
Mg645       O689   2.323       .  S
Mg645      O1885   2.272       .  S
Mg645      O1856   2.303       .  S
O646       Mg688   2.131       .  S
O646       Mg671   2.111   1_554  S
O646        C667   1.241   1_554  S
O647      Mg3071   2.303   1_554  S
C648        O650   1.268       .  A
C648        O662   1.278       .  A
C648        N705   1.446       .  S
O649        C677   1.275       .  A
O649      Mg3051   2.306       .  S
O650       Mg682   2.274       .  S
Mg651      O3057   2.133       .  S
Mg651      O3049   2.306       .  S
Mg651       O665   2.278       .  S
Mg651       O653   2.286       .  S
C652       C1051   1.475       .  S
C652        O690   1.274   1_556  A
C652       O1858   1.274       .  A
H654        C667   1.081       .  S
C655        O669   1.242       .  S
C655        O670   1.275       .  A
C655        H680   1.081       .  S
O656       C3079   1.274       .  A
O656      Mg1845   2.303       .  S
O657      Mg3051   2.133       .  S
O658       C1852   1.274       .  A
O658       Mg688   2.306   1_556  S
C659        O672   1.271       .  A
C659        O664   1.280       .  A
C659        N691   1.448       .  S
C660        C982   1.477   1_554  S
C660        O687   1.275   1_554  A
Mg661       O668   2.107       .  S
Mg661      O1869   2.130       .  S
Mg661       O662   2.314       .  S
O663       C1867   1.275       .  A
O664       Mg671   2.319       .  S
O665        C684   1.269       .  A
O666       C3086   1.269       .  A
O666       Mg682   2.273       .  S
C667       O1863   1.275       .  A
O668       Mg682   2.133       .  S
O668        C679   1.240       .  S
O669      Mg1861   2.130   1_545  S
O670      Mg1882   2.307       .  S
Mg671      O3047   2.303   1_456  S
Mg671      O3087   2.272       .  S
O672       Mg688   2.290   1_556  S
H673        C678   1.081       .  S
O674      Mg3045   2.138   1_455  S
O674      Mg1882   2.129       .  S
O674        C677   1.241       .  S
H675        C677   1.081       .  S
H676        C679   1.081       .  S
C679       O3056   1.274       .  A
Mg682      O1874   2.129       .  S
Mg682      O1870   2.307       .  S
C684        O689   1.281       .  A
C684        N698   1.445       .  S
O685        C686   1.275       .  A
O685      Mg1845   2.272       .  S
C686        C844   1.475       .  S
C686       O3066   1.269       .  A
O687      Mg3071   2.272       .  S
N691        C695   1.370       .  A
N691        C692   1.357       .  A
C692        C960   1.463   1_556  S
C692        C693   1.375       .  A
C693        H696   1.083       .  S
C693        C694   1.364       .  A
C694        H697   1.083       .  S
C694        C695   1.386       .  A
C695       C1195   1.478       .  S
N698        C702   1.367       .  A
N698        C699   1.353       .  A
C699        C786   1.458       .  S
C699        C700   1.376       .  A
C700        H703   1.082       .  S
C700        C701   1.365       .  A
C701        H704   1.083       .  S
C701        C702   1.387       .  A
N705        C709   1.368       .  A
N705        C706   1.357       .  A
C706       C2197   1.468       .  S
C706        C707   1.377       .  A
C707        H710   1.082       .  S
C707        C708   1.368       .  A
C708        H711   1.083       .  S
C708        C709   1.386       .  A
O712       Mg714   2.111   1_655  S
O712      Mg3120   2.131       .  S
O712        C747   1.241   1_655  S
C713        O726   1.242       .  S
C713        O750   1.275       .  A
C713        H752   1.081       .  S
Mg714       O743   2.135       .  S
Mg714       O758   2.319   1_455  S
Mg714       O754   2.272       .  S
Mg714       O725   2.303       .  S
O715       Mg757   2.133       .  S
O715      Mg3140   2.107       .  S
O715        C736   1.240   1_655  S
O716        C747   1.275   1_655  A
O716      Mg3140   2.310       .  S
C717        O719   1.269       .  A
C717        O731   1.281       .  A
C717        N767   1.445       .  S
O718        C746   1.276       .  A
O718       Mg720   2.312       .  S
O719       Mg751   2.278       .  S
Mg720      O3112   2.131       .  S
Mg720       O726   2.127       .  S
Mg720       O734   2.290       .  S
Mg720       O722   2.306       .  S
C721        C975   1.475       .  S
C721        O759   1.275       .  A
C721        O727   1.269       .  A
O722        C729   1.274       .  A
H723        C736   1.081       .  S
C724        O738   1.241       .  S
C724        O739   1.275       .  A
C724        H749   1.081   1_455  S
O725        C748   1.274       .  A
O726       Mg740   2.130       .  S
O727       Mg757   2.273   1_455  S
C728        O741   1.268       .  A
C728        O733   1.278       .  A
C728        N760   1.446       .  S
C729       C1120   1.476       .  S
C729        O756   1.274       .  A
Mg730       O737   2.102       .  S
Mg730       O738   2.138       .  S
Mg730       O731   2.323       .  S
Mg730       O732   2.303       .  S
Mg730       O759   2.272       .  S
O732        C736   1.274       .  A
O733       Mg740   2.314       .  S
O734        C753   1.271       .  A
O735        C755   1.270       .  A
O735       Mg751   2.286       .  S
O737       Mg751   2.131       .  S
O737        C748   1.240       .  S
O738       Mg757   2.129   1_455  S
O739       Mg751   2.307       .  S
Mg740      O3115   2.107       .  S
Mg740      O3116   2.310       .  S
Mg740       O756   2.272       .  S
O741      Mg3157   2.274       .  S
H742        C747   1.081       .  S
O743       Mg751   2.133       .  S
O743       C3146   1.242   1_455  S
H744        C746   1.081       .  S
H745        C748   1.081       .  S
C746       O3143   1.242       .  S
O750      Mg3157   2.307       .  S
C753       O3158   1.280       .  A
C753        N774   1.448       .  S
O754        C755   1.275       .  A
C755        C830   1.477       .  S
Mg757      O3141   2.274       .  S
Mg757      O3150   2.307       .  S
O758       C3153   1.280       .  A
N760        C764   1.368       .  A
N760        C761   1.357       .  A
C761       C1100   1.468       .  S
C761        C762   1.377       .  A
C762        H765   1.082       .  S
C762        C763   1.368       .  A
C763        H766   1.083       .  S
C763        C764   1.386       .  A
N767        C771   1.367       .  A
N767        C768   1.353       .  A
C768        C935   1.458       .  S
C768        C769   1.375       .  A
C769        H772   1.082       .  S
C769        C770   1.365       .  A
C770        H773   1.083       .  S
C770        C771   1.387       .  A
N774        C778   1.370       .  A
N774        C775   1.357       .  A
C775        C797   1.463       .  S
C775        C776   1.375       .  A
C776        H779   1.083       .  S
C776        C777   1.364       .  A
C777        H780   1.083       .  S
C777        C778   1.386       .  A
O781       Mg783   2.151   1_565  S
O781       Mg789   2.119   1_565  S
O781       C2016   1.242       .  S
C782       O1995   1.240       .  S
C782       O3219   1.276   1_455  A
C782        H821   1.081   1_565  S
Mg783       O812   2.080       .  S
Mg783       O827   2.333       .  S
Mg783       O823   2.284       .  S
Mg783       O794   2.339       .  S
O784      Mg3226   2.117   1_455  S
O784       Mg809   2.144       .  S
O784        C805   1.242       .  S
O785        C816   1.280       .  A
O785       Mg809   2.344       .  S
C786       O3188   1.263       .  A
C786        O800   1.275       .  A
O787        C815   1.275       .  A
O787       Mg789   2.322       .  S
O788       C3186   1.263       .  A
O788       Mg820   2.201       .  S
Mg789      O1995   2.141   1_545  S
Mg789       O803   2.207       .  S
Mg789      O1991   2.346   1_545  S
C790        O828   1.266       .  A
C790        O796   1.270       .  A
C790        N843   1.446       .  S
O791        C798   1.269       .  A
O791      Mg1989   2.346       .  S
H792        C805   1.082       .  S
C793        O807   1.241       .  S
C793       O3208   1.276       .  A
C793        H818   1.081       .  S
O794        C817   1.279       .  A
O795      Mg1989   2.141       .  S
O795       Mg809   2.082       .  S
O795       C1982   1.240       .  S
O796       Mg826   2.354       .  S
C797        O810   1.263       .  A
C797       O3202   1.276       .  A
C798        O825   1.265       .  A
C798        N829   1.443       .  S
Mg799       O806   2.149       .  S
Mg799      O3207   2.080       .  S
Mg799      O3200   2.325       .  S
Mg799      O2001   2.338   1_545  S
Mg799      O4428   2.285   1_445  S
O800      Mg3199   2.325       .  S
O801        C805   1.279       .  A
O801      Mg1999   2.338       .  S
O802       C3197   1.276   1_455  A
O802       Mg809   2.335       .  S
O803        C822   1.263       .  A
O804        C824   1.270       .  A
O804       Mg820   2.351       .  S
O806       Mg820   2.120       .  S
O806        C817   1.242       .  S
O807      Mg3199   2.080       .  S
O807      Mg2026   2.134   1_545  S
O808       C3193   1.276   1_455  A
O808       Mg820   2.322       .  S
Mg809       O825   2.278       .  S
O810       Mg826   2.207       .  S
H811        C816   1.082       .  S
O812       Mg820   2.134       .  S
O812        C815   1.240       .  S
H813        C815   1.081       .  S
H814        C817   1.082       .  S
C816       O1981   1.242       .  S
O819       C3182   1.276       .  A
O819      Mg2026   2.325       .  S
C822       C1182   1.460       .  S
C822        O827   1.276       .  A
O823        C824   1.266       .  A
C824        N836   1.444       .  S
Mg826      O3184   2.117       .  S
Mg826      O2007   2.134       .  S
Mg826      O2019   2.325       .  S
O828      Mg4399   2.285       .  S
N829        C833   1.370       .  A
N829        C830   1.359       .  A
C830        C831   1.378       .  A
C831        H834   1.083       .  S
C831        C832   1.370       .  A
C832        H835   1.082       .  S
C832        C833   1.386       .  A
N836        C840   1.371       .  A
N836        C837   1.360       .  A
C837       C1143   1.476       .  S
C837        C838   1.377       .  A
C838        H841   1.083       .  S
C838        C839   1.368       .  A
C839        H842   1.082       .  S
C839        C840   1.387       .  A
N843        C847   1.372       .  A
N843        C844   1.359       .  A
C844        C845   1.378       .  A
C845        H848   1.083       .  S
C845        C846   1.368       .  A
C846        H849   1.082       .  S
C846        C847   1.386       .  A
O850       Mg852   2.106       .  S
O850        C885   1.241       .  S
C851        O864   1.242       .  S
C851        O888   1.276       .  A
C851        H890   1.081       .  S
Mg852       O881   2.136       .  S
Mg852       O896   2.319       .  S
Mg852       O892   2.271       .  S
Mg852       O863   2.305       .  S
O853       Mg895   2.130       .  S
O853        C874   1.241       .  S
O854        C885   1.275       .  A
C855        O857   1.268       .  A
C855        O869   1.276       .  A
C855        N905   1.444       .  S
O856        C884   1.275       .  A
O856       Mg858   2.310       .  S
O857       Mg889   2.271       .  S
Mg858       O864   2.131       .  S
Mg858       O872   2.294       .  S
Mg858       O860   2.311       .  S
C859       C1044   1.472       .  S
C859        O897   1.272       .  A
C859        O865   1.273       .  A
O860        C867   1.274       .  A
H861        C874   1.081       .  S
C862        O876   1.241       .  S
C862        O877   1.275       .  A
C862        H887   1.081       .  S
O863        C886   1.274       .  A
O864       Mg878   2.128       .  S
O865       Mg895   2.303       .  S
C866        O879   1.271       .  A
C866        O871   1.276       .  A
C866        N898   1.448       .  S
C867       C1113   1.475       .  S
C867        O894   1.273       .  A
Mg868       O875   2.107       .  S
Mg868       O876   2.130       .  S
Mg868       O869   2.306       .  S
Mg868       O870   2.309       .  S
Mg868       O897   2.264       .  S
O870        C874   1.275       .  A
O871       Mg878   2.308       .  S
O872        C891   1.272       .  A
O873        C893   1.269       .  A
O873       Mg889   2.278       .  S
O875       Mg889   2.131       .  S
O875        C886   1.240       .  S
O876       Mg895   2.124       .  S
O877       Mg889   2.308       .  S
Mg878       O894   2.267       .  S
H880        C885   1.081       .  S
O881       Mg889   2.129       .  S
H882        C884   1.081       .  S
H883        C886   1.081       .  S
C891        N912   1.448       .  S
O892        C893   1.274       .  A
C893        C968   1.476       .  S
N898        C902   1.369       .  A
N898        C899   1.360       .  A
C899       C1074   1.470       .  S
C899        C900   1.377       .  A
C900        H903   1.083       .  S
C900        C901   1.366       .  A
C901        H904   1.083       .  S
C901        C902   1.386       .  A
C902       C1197   1.480       .  S
N905        C909   1.366       .  A
N905        C906   1.357       .  A
C906       C1005   1.467       .  S
C906        C907   1.377       .  A
C907        H910   1.083       .  S
C907        C908   1.367       .  A
C908        H911   1.083       .  S
C908        C909   1.387       .  A
N912        C916   1.369       .  A
N912        C913   1.357       .  A
C913        C924   1.460       .  S
C913        C914   1.375       .  A
C914        H917   1.083       .  S
C914        C915   1.363       .  A
C915        H918   1.083       .  S
C915        C916   1.387       .  A
O919       Mg921   2.144       .  S
O919       Mg927   2.117       .  S
O919        C954   1.242       .  S
C920        O933   1.241       .  S
C920        O957   1.276       .  A
C920        H959   1.081       .  S
Mg921      O2761   2.278   1_455  S
Mg921      O3332   2.344   1_455  S
O922       Mg964   2.120   1_655  S
O922       Mg947   2.149   1_655  S
O922       C3343   1.242       .  S
O923        C954   1.279       .  A
O923       Mg947   2.338       .  S
C924        O926   1.263       .  A
O925       Mg927   2.325       .  S
O926       Mg958   2.207       .  S
Mg927       O933   2.134       .  S
Mg927       O941   2.207       .  S
Mg927       O929   2.354       .  S
C928        O966   1.266       .  A
C928        O934   1.270       .  A
C928        N967   1.444       .  S
O929        C936   1.270       .  A
H930        C943   1.082       .  S
C931       O3345   1.240       .  S
C931        H956   1.081   1_655  S
O932        C955   1.280       .  A
O932      Mg3321   2.344       .  S
O933       Mg947   2.080       .  S
O934      Mg3364   2.351       .  S
C935        O948   1.263       .  A
C935        O940   1.275       .  A
C936        O963   1.266       .  A
C936        N974   1.446       .  S
Mg937       O944   2.151       .  S
Mg937       O945   2.080       .  S
Mg937       O938   2.333       .  S
Mg937       O939   2.339       .  S
Mg937       O966   2.284       .  S
O939        C943   1.279       .  A
O940       Mg947   2.325       .  S
O942        C962   1.269       .  A
O942       Mg958   2.346       .  S
C943       O3322   1.242       .  S
O944        C955   1.242       .  S
O945      Mg3364   2.134       .  S
O945       C3331   1.240       .  S
O946      Mg3358   2.322       .  S
Mg947       O963   2.284       .  S
O948       Mg964   2.201       .  S
H949        C954   1.082       .  S
O950      Mg3358   2.141   1_454  S
O950        C953   1.240   1_554  S
H951        C953   1.081       .  S
H952        C955   1.082       .  S
O957       Mg964   2.322       .  S
Mg958      O3350   2.141   1_556  S
Mg958      O3346   2.322       .  S
C960        O965   1.276       .  A
O961        C962   1.265       .  A
O961      Mg2721   2.278   1_556  S
C962        N981   1.443       .  S
Mg964      O3345   2.134   1_455  S
Mg964      O3334   2.351   1_455  S
N967        C971   1.371       .  A
N967        C968   1.360       .  A
C968        C969   1.377       .  A
C969        H972   1.083       .  S
C969        C970   1.368       .  A
C970        H973   1.082       .  S
C970        C971   1.387       .  A
N974        C978   1.372       .  A
N974        C975   1.359       .  A
C975        C976   1.378       .  A
C976        H979   1.083       .  S
C976        C977   1.368       .  A
C977        H980   1.083       .  S
C977        C978   1.386       .  A
N981        C985   1.370       .  A
N981        C982   1.359       .  A
C982        C983   1.378   1_556  A
C983        H986   1.083       .  S
C983        C984   1.370   1_554  A
C984        H987   1.082       .  S
C984        C985   1.386       .  A
O988       Mg996   2.129       .  S
O988       C1023   1.241       .  S
C989       O1002   1.242       .  S
C989       O1026   1.275       .  A
C989       H1028   1.081       .  S
Mg990      O1019   2.132       .  S
Mg990      O1034   2.303       .  S
Mg990      O2230   2.263       .  S
Mg990      O1601   2.306   1_545  S
O991      Mg1033   2.128       .  S
O991      Mg1016   2.097       .  S
O991       C1012   1.241       .  S
O992       C1023   1.275       .  A
O992      Mg1016   2.310       .  S
C993        O995   1.270       .  A
C993       N1050   1.447       .  S
O994       C1022   1.275       .  A
O995      Mg2227   2.281       .  S
Mg996      O1002   2.130       .  S
Mg996       O998   2.280       .  S
C997       C1906   1.468   1_545  S
C997       O2235   1.272   1_545  A
C997       O1003   1.270       .  A
O998       C1005   1.270       .  A
H999       C1012   1.081       .  S
C1000      O1015   1.275       .  A
C1000      H1025   1.081       .  S
O1001      C1024   1.274       .  A
O1001     Mg1590   2.306       .  S
O1002     Mg1016   2.131       .  S
O1003     Mg1033   2.284       .  S
C1004      O1017   1.269       .  A
C1004      O1009   1.278       .  A
C1004      N1043   1.448       .  S
C1005      O1032   1.272       .  A
Mg1006     O1013   2.103       .  S
Mg1006     O2214   2.130       .  S
Mg1006     O1007   2.307       .  S
Mg1006     O1008   2.308       .  S
Mg1006     O1035   2.255       .  S
O1008      C2212   1.275       .  A
O1009     Mg1016   2.318       .  S
O1010      C1029   1.269       .  A
O1011      C1031   1.272       .  A
O1011     Mg2227   2.293       .  S
C1012      O2208   1.275       .  A
O1013     Mg1627   2.127       .  S
O1013      C1024   1.240       .  S
O1014     Mg2206   2.130   1_545  S
O1014     Mg1033   2.128       .  S
O1015     Mg1027   2.310       .  S
Mg1016     O1032   2.258       .  S
O1017     Mg1033   2.283       .  S
H1018      C1023   1.081       .  S
O1019     Mg1027   2.125       .  S
O1019      C1022   1.242       .  S
H1020      C1022   1.081       .  S
H1021      C1024   1.081       .  S
O1026     Mg1033   2.310       .  S
Mg1027     O1613   2.127       .  S
Mg1027     O2195   2.281   1_545  S
Mg1027     O2211   2.293   1_545  S
C1029      O1034   1.276       .  A
C1029      N1036   1.444       .  S
O1030      C1031   1.272       .  A
O1030     Mg2190   2.263       .  S
C1031      C1189   1.470       .  S
O1035      C2197   1.272       .  A
N1036      C1040   1.370       .  A
N1036      C1037   1.361       .  A
C1037      C1135   1.475       .  S
C1037      C1038   1.376       .  A
C1038      H1041   1.083       .  S
C1038      C1039   1.369       .  A
C1039      H1042   1.082       .  S
C1039      C1040   1.388       .  A
N1043      C1047   1.372       .  A
N1043      C1044   1.361       .  A
C1044      C1045   1.376       .  A
C1045      H1048   1.083       .  S
C1045      C1046   1.367       .  A
C1046      H1049   1.083       .  S
C1046      C1047   1.387       .  A
N1050      C1054   1.370       .  A
N1050      C1051   1.361       .  A
C1051      C1052   1.377       .  A
C1052      H1055   1.083       .  S
C1052      C1053   1.369       .  A
C1053      H1056   1.083       .  S
C1053      C1054   1.386       .  A
O1057     Mg1059   2.103       .  S
O1057     Mg1065   2.127       .  S
O1057      C1092   1.240       .  S
C1058      O1071   1.242       .  S
C1058      O1095   1.275       .  A
C1058      H1097   1.081       .  S
Mg1059     O1088   2.130       .  S
Mg1059     O1103   2.307       .  S
Mg1059     O1099   2.255       .  S
Mg1059     O1070   2.308       .  S
O1060     Mg1102   2.129       .  S
O1060     Mg1085   2.105       .  S
O1060      C1081   1.241       .  S
O1061      C1092   1.274       .  A
O1061     Mg1085   2.306       .  S
C1062      O1064   1.269       .  A
C1062      O1076   1.278       .  A
C1062      N1105   1.448       .  S
O1063      C1091   1.275       .  A
O1063     Mg1065   2.310       .  S
O1064     Mg1096   2.283       .  S
Mg1065     O1071   2.125       .  S
Mg1065     O1079   2.280       .  S
Mg1065     O1067   2.293       .  S
C1066      C1175   1.467       .  S
C1066      O1104   1.272       .  A
C1066      O1072   1.270       .  A
O1067      C1074   1.272       .  A
H1068      C1081   1.081       .  S
C1069      O1083   1.242       .  S
C1069      O1084   1.275       .  A
C1069      H1094   1.081       .  S
O1070      C1093   1.275       .  A
O1071     Mg1085   2.132       .  S
O1072     Mg1102   2.280       .  S
C1073      O1086   1.269       .  A
C1073      O1078   1.276       .  A
C1073      N1112   1.444       .  S
C1074      O1101   1.272       .  A
Mg1075     O1082   2.097       .  S
Mg1075     O1083   2.131       .  S
Mg1075     O1076   2.318       .  S
Mg1075     O1077   2.310       .  S
Mg1075     O1104   2.258       .  S
O1077      C1081   1.275       .  A
O1078     Mg1085   2.303       .  S
O1079      C1098   1.270       .  A
O1080      C1100   1.270       .  A
O1080     Mg1096   2.284       .  S
O1082     Mg1096   2.128       .  S
O1082      C1093   1.241       .  S
O1083     Mg1102   2.130       .  S
O1084     Mg1096   2.310       .  S
Mg1085     O1101   2.263       .  S
O1086     Mg1102   2.279       .  S
H1087      C1092   1.081       .  S
O1088     Mg1096   2.128       .  S
O1088      C1091   1.242       .  S
H1089      C1091   1.081       .  S
H1090      C1093   1.081       .  S
O1095     Mg1102   2.308       .  S
C1098      O1103   1.276       .  A
C1098      N1119   1.447       .  S
O1099      C1100   1.272       .  A
N1105      C1109   1.372       .  A
N1105      C1106   1.361       .  A
C1106      C1169   1.472       .  S
C1106      C1107   1.376       .  A
C1107      H1110   1.083       .  S
C1107      C1108   1.367       .  A
C1108      H1111   1.083       .  S
C1108      C1109   1.387       .  A
N1112      C1116   1.370       .  A
N1112      C1113   1.361       .  A
C1113      C1114   1.376       .  A
C1114      H1117   1.083       .  S
C1114      C1115   1.369       .  A
C1115      H1118   1.082       .  S
C1115      C1116   1.388       .  A
N1119      C1123   1.370       .  A
N1119      C1120   1.361       .  A
C1120      C1121   1.377       .  A
C1121      H1124   1.083       .  S
C1121      C1122   1.369       .  A
C1122      H1125   1.083       .  S
C1122      C1123   1.386       .  A
O1126     Mg2328   2.107       .  S
O1126     Mg1134   2.131       .  S
O1126      C1161   1.240   1_565  S
C1127      O1140   1.242       .  S
C1127      O1164   1.275       .  A
C1127      H1166   1.081   1_545  S
Mg1128     O2326   2.107       .  S
Mg1128     O1157   2.130       .  S
Mg1128     O1172   2.306       .  S
Mg1128     O1168   2.264       .  S
Mg1128     O2339   2.309       .  S
O1129     Mg1171   2.129       .  S
O1129     Mg1154   2.106       .  S
O1129      C1150   1.241       .  S
O1130      C1161   1.274       .  A
O1130     Mg1154   2.305       .  S
C1131      O1133   1.271       .  A
C1131      O2345   1.276       .  A
C1131      N1188   1.448       .  S
O1132      C1160   1.275       .  A
O1132     Mg2334   2.308       .  S
O1133     Mg1165   2.285       .  S
Mg1134     O1140   2.129   1_565  S
Mg1134     O2332   2.308       .  S
Mg1134     O2348   2.271       .  S
Mg1134     O1136   2.278   1_565  S
C1135      O1173   1.273       .  A
C1135      O1141   1.274       .  A
O1136      C1143   1.269       .  A
H1137      C1150   1.081       .  S
C1138      O2352   1.242       .  S
C1138      O1153   1.276       .  A
C1138      H1163   1.081       .  S
O1139      C1162   1.275   1_565  A
O1139     Mg2328   2.309       .  S
O1140     Mg1154   2.136       .  S
O1141     Mg1171   2.311       .  S
C1142      O1155   1.272       .  A
C1142      O1147   1.279       .  A
C1142      N1181   1.448       .  S
C1143      O1170   1.274       .  A
Mg1144     O1151   2.111   1_545  S
Mg1144     O1152   2.128       .  S
Mg1144     O1145   2.308   1_545  S
Mg1144     O1146   2.308       .  S
Mg1144     O1173   2.267       .  S
O1145      C2331   1.276       .  A
O1146      C1150   1.275       .  A
O1147     Mg1154   2.318       .  S
O1148      C1167   1.268       .  A
O1148     Mg2334   2.271       .  S
O1149      C1169   1.273       .  A
O1149     Mg1165   2.303       .  S
O1151     Mg2365   2.130       .  S
O1151      C1162   1.241   1_565  S
O1152     Mg1171   2.131       .  S
O1152      C2338   1.242   1_545  S
O1153     Mg1165   2.311       .  S
Mg1154     O1170   2.271       .  S
O1155     Mg1171   2.294       .  S
H1156      C1161   1.081       .  S
O1157     Mg1165   2.124       .  S
O1157      C1160   1.241       .  S
H1158      C1160   1.081       .  S
H1159      C1162   1.081       .  S
O1164     Mg1171   2.310       .  S
Mg1165     O2351   2.130       .  S
C1167      O1172   1.276       .  A
C1167      N1174   1.444       .  S
O1168      C1169   1.272       .  A
N1174      C1178   1.366       .  A
N1174      C1175   1.357       .  A
C1175      C1176   1.377       .  A
C1176      H1179   1.083       .  S
C1176      C1177   1.367       .  A
C1177      H1180   1.083       .  S
C1177      C1178   1.387       .  A
N1181      C1185   1.369       .  A
N1181      C1182   1.357       .  A
C1182      C1183   1.375       .  A
C1183      H1186   1.083       .  S
C1183      C1184   1.363       .  A
C1184      H1187   1.083       .  S
C1184      C1185   1.387       .  A
C1185      C1199   1.476       .  S
N1188      C1192   1.369       .  A
N1188      C1189   1.360       .  A
C1189      C1190   1.377       .  A
C1190      H1193   1.083       .  S
C1190      C1191   1.366       .  A
C1191      H1194   1.083       .  S
C1191      C1192   1.386       .  A
C1195      N1196   1.363       .  A
C1195      N1200   1.352       .  A
N1196      C1197   1.354       .  A
C1197      N1198   1.362       .  A
N1198      C1199   1.354       .  A
C1199      N1200   1.362       .  A
C1201      N1202   1.354       .  A
C1201      N1206   1.362       .  A
C1201      C1516   1.476       .  S
N1202      C1203   1.362       .  A
C1203      N1204   1.354       .  A
C1203      C1792   1.480       .  S
N1204      C1205   1.363       .  A
C1205      N1206   1.352       .  A
C1205      C1378   1.478       .  S
C1207      N1208   1.356       .  A
C1207      N1212   1.361       .  A
C1207      C1778   1.479       .  S
N1208      C1209   1.363       .  A
C1209      N1210   1.353       .  A
C1209      C1309   1.480       .  S
N1210      C1211   1.361       .  A
C1211      N1212   1.352       .  A
C1211      C1371   1.475       .  S
C1213      N1214   1.358       .  A
C1213      N1218   1.365       .  A
C1213      C1571   1.489       .  S
N1214      C1215   1.368       .  A
C1215      N1216   1.355       .  A
C1215      C1447   1.486       .  S
N1216      C1217   1.364       .  A
C1217      N1218   1.356       .  A
C1217      C1709   1.487       .  S
C1219      N1220   1.368       .  A
C1219      N1224   1.355       .  A
C1219      C1578   1.486       .  S
N1220      C1221   1.358       .  A
C1221      N1222   1.365       .  A
C1221      C1440   1.489       .  S
N1222      C1223   1.356       .  A
C1223      N1224   1.364       .  A
C1223      C1647   1.487       .  S
C1225      N1226   1.361       .  A
C1225      N1230   1.352       .  A
C1225      C1302   1.475       .  S
N1226      C1227   1.353       .  A
C1227      N1228   1.363       .  A
C1227      C1364   1.480       .  S
N1228      C1229   1.356       .  A
C1229      N1230   1.361       .  A
C1229      C1509   1.479       .  S
C1231      N1232   1.365       .  A
C1231      N1236   1.355       .  A
C1231      C1723   1.484       .  S
N1232      C1233   1.357       .  A
C1233      N1234   1.367       .  A
C1233      C1585   1.487       .  S
N1234      C1235   1.358       .  A
C1235      N1236   1.362       .  A
C1235      C1640   1.489       .  S
C1237      N1238   1.367       .  A
C1237      N1242   1.357       .  A
C1237      C1433   1.487       .  S
N1238      C1239   1.358       .  A
C1239      N1240   1.362       .  A
C1239      C1716   1.489       .  S
N1240      C1241   1.355       .  A
C1241      N1242   1.365       .  A
C1241      C1654   1.484       .  S
O1243     Mg1245   2.102       .  S
O1243     Mg1251   2.131       .  S
O1243      C1278   1.240       .  S
C1244      O1257   1.242       .  S
C1244      O1281   1.276       .  A
C1244      H1283   1.081       .  S
Mg1245     O3674   2.138       .  S
Mg1245     O1289   2.323       .  S
O1246     Mg1288   2.131       .  S
O1246     Mg1271   2.111       .  S
O1246      C1267   1.241       .  S
O1247      C1878   1.274       .  A
O1247     Mg3671   2.303       .  S
C1248      O1250   1.268       .  A
C1248      O1262   1.278       .  A
C1248      N1305   1.446       .  S
O1249      C1277   1.275       .  A
O1249     Mg3651   2.307       .  S
O1250     Mg1282   2.274   1_565  S
Mg1251     O3657   2.133       .  S
Mg1251     O3649   2.307       .  S
Mg1251     O1265   2.278       .  S
Mg1251     O1253   2.286       .  S
C1252      C1651   1.475   1_545  S
C1252      O1290   1.274   1_545  A
O1253      C1860   1.270       .  A
H1254      C1267   1.081       .  S
C1255      O1269   1.242       .  S
C1255      O1270   1.275       .  A
C1255      H1280   1.081       .  S
O1256      C3679   1.274   1_545  A
O1257     Mg3651   2.133       .  S
O1257     Mg1871   2.135   1_554  S
O1258     Mg1288   2.306       .  S
C1259      O1272   1.271       .  A
C1259      O1264   1.280       .  A
C1259      N1291   1.448       .  S
C1260      C1582   1.477       .  S
C1260      O1853   1.270       .  A
C1260      O1287   1.275       .  A
Mg1261     O1268   2.107   1_565  S
Mg1261     O1262   2.314       .  S
Mg1261     O1863   2.310   1_564  S
Mg1261     O1890   2.272       .  S
O1263     Mg1861   2.310   1_545  S
O1264     Mg1271   2.319       .  S
O1265      C1284   1.269       .  A
O1266      C3686   1.269       .  A
O1266     Mg1282   2.272   1_565  S
O1268     Mg1282   2.133       .  S
O1268      C1279   1.240   1_545  S
O1269     Mg1888   2.127       .  S
Mg1271     O1857   2.135       .  S
Mg1271     O3647   2.303   1_455  S
Mg1271     O3687   2.272       .  S
O1272     Mg1288   2.290       .  S
H1273      C1278   1.081       .  S
O1274     Mg3645   2.138   1_455  S
O1274      C1277   1.241       .  S
H1275      C1277   1.081       .  S
H1276      C1279   1.081       .  S
C1278      O1847   1.274       .  A
C1279      O3656   1.274   1_565  A
O1281     Mg1888   2.312       .  S
C1284      O1289   1.281       .  A
C1284      N1298   1.445       .  S
O1285      C1286   1.275   1_545  A
C1286      C1444   1.475       .  S
C1286      O3666   1.269       .  A
O1287     Mg3671   2.272       .  S
Mg1288     O1869   2.127       .  S
Mg1288     O1881   2.312       .  S
O1290     Mg1861   2.272       .  S
N1291      C1295   1.370       .  A
N1291      C1292   1.357       .  A
C1292      C1560   1.463       .  S
C1292      C1293   1.375       .  A
C1293      H1296   1.083       .  S
C1293      C1294   1.364       .  A
C1294      H1297   1.083       .  S
C1294      C1295   1.386       .  A
C1295      C1795   1.478       .  S
N1298      C1302   1.367       .  A
N1298      C1299   1.353       .  A
C1299      C1386   1.458       .  S
C1299      C1300   1.376       .  A
C1300      H1303   1.082       .  S
C1300      C1301   1.365       .  A
C1301      H1304   1.083       .  S
C1301      C1302   1.387       .  A
N1305      C1309   1.368       .  A
N1305      C1306   1.357       .  A
C1306      C1307   1.377       .  A
C1307      H1310   1.082   1_565  S
C1307      C1308   1.368       .  A
C1308      H1311   1.083       .  S
C1308      C1309   1.386       .  A
O1312     Mg1314   2.111   1_655  S
O1312     Mg3720   2.131       .  S
O1312      C1347   1.241   1_655  S
C1313      O1326   1.242       .  S
C1313      O1350   1.275       .  A
C1313      H1352   1.081       .  S
Mg1314     O1343   2.135       .  S
Mg1314     O1358   2.319   1_455  S
Mg1314     O1354   2.272       .  S
Mg1314     O1325   2.303       .  S
O1315     Mg1357   2.133       .  S
O1315     Mg3740   2.107       .  S
O1315      C1336   1.240   1_655  S
O1316      C1347   1.275   1_655  A
O1316     Mg3740   2.310       .  S
C1317      O1319   1.269       .  A
C1317      O1331   1.281       .  A
C1317      N1367   1.445       .  S
O1318      C1346   1.276       .  A
O1318     Mg1320   2.312       .  S
O1319     Mg1351   2.278       .  S
Mg1320     O3712   2.131       .  S
Mg1320     O1326   2.127       .  S
Mg1320     O1334   2.290       .  S
Mg1320     O1322   2.306       .  S
C1321      C1575   1.475       .  S
C1321      O1359   1.275       .  A
C1321      O1327   1.269       .  A
O1322      C1329   1.274       .  A
H1323      C1336   1.081       .  S
C1324      O1338   1.241       .  S
C1324      O1339   1.275       .  A
C1324      H1349   1.081   1_455  S
O1325      C1348   1.274       .  A
O1326     Mg1340   2.130       .  S
O1327     Mg1357   2.273   1_455  S
C1328      O1341   1.268       .  A
C1328      O1333   1.278       .  A
C1328      N1360   1.446       .  S
C1329      C1720   1.476       .  S
C1329      O1356   1.274       .  A
Mg1330     O1337   2.102       .  S
Mg1330     O1338   2.138       .  S
Mg1330     O1331   2.323       .  S
Mg1330     O1332   2.303       .  S
Mg1330     O1359   2.272       .  S
O1332      C1336   1.274       .  A
O1333     Mg1340   2.314       .  S
O1334      C1353   1.271       .  A
O1335      C1355   1.270       .  A
O1335     Mg1351   2.286       .  S
O1337     Mg1351   2.131       .  S
O1337      C1348   1.240       .  S
O1338     Mg1357   2.129   1_455  S
O1339     Mg1351   2.307       .  S
Mg1340     O3715   2.107       .  S
Mg1340     O3716   2.310       .  S
Mg1340     O1356   2.272       .  S
O1341     Mg3757   2.274       .  S
H1342      C1347   1.081       .  S
O1343     Mg1351   2.133       .  S
O1343      C3746   1.242   1_455  S
H1344      C1346   1.081       .  S
H1345      C1348   1.081       .  S
C1346      O3743   1.242       .  S
O1350     Mg3757   2.307       .  S
C1353      O3758   1.280       .  A
C1353      N1374   1.448       .  S
O1354      C1355   1.275       .  A
C1355      C1430   1.477       .  S
Mg1357     O3741   2.274       .  S
Mg1357     O3750   2.307       .  S
O1358      C3753   1.280       .  A
N1360      C1364   1.368       .  A
N1360      C1361   1.357       .  A
C1361      C1700   1.468       .  S
C1361      C1362   1.377       .  A
C1362      H1365   1.082       .  S
C1362      C1363   1.368       .  A
C1363      H1366   1.083       .  S
C1363      C1364   1.386       .  A
N1367      C1371   1.367       .  A
N1367      C1368   1.353       .  A
C1368      C1535   1.458       .  S
C1368      C1369   1.375       .  A
C1369      H1372   1.082       .  S
C1369      C1370   1.365       .  A
C1370      H1373   1.083       .  S
C1370      C1371   1.387       .  A
N1374      C1378   1.370       .  A
N1374      C1375   1.357       .  A
C1375      C1397   1.463       .  S
C1375      C1376   1.375       .  A
C1376      H1379   1.083       .  S
C1376      C1377   1.364       .  A
C1377      H1380   1.083       .  S
C1377      C1378   1.386       .  A
O1381     Mg1383   2.151       .  S
O1381     Mg1389   2.119       .  S
C1382      O3819   1.276   1_455  A
C1382      H1421   1.081       .  S
Mg1383     O1412   2.080       .  S
Mg1383     O1427   2.333       .  S
Mg1383     O1423   2.284       .  S
Mg1383     O1394   2.339       .  S
O1384     Mg3826   2.117   1_455  S
O1384     Mg1409   2.144       .  S
O1384      C1405   1.242       .  S
O1385      C1416   1.280       .  A
O1385     Mg1409   2.344       .  S
C1386      O3788   1.263       .  A
C1386      O1400   1.275       .  A
O1387      C1415   1.275       .  A
O1387     Mg1389   2.322       .  S
O1388      C3786   1.263       .  A
O1388     Mg1420   2.201       .  S
Mg1389     O1403   2.207       .  S
C1390      O1428   1.266       .  A
C1390      O1396   1.270       .  A
C1390      N1443   1.446       .  S
O1391      C1398   1.269       .  A
H1392      C1405   1.082       .  S
C1393      O1407   1.241       .  S
C1393      O3808   1.276       .  A
C1393      H1418   1.081       .  S
O1394      C1417   1.279       .  A
O1395     Mg1409   2.082       .  S
O1396     Mg1426   2.354       .  S
C1397      O1410   1.263       .  A
C1397      O3802   1.276       .  A
C1398      O1425   1.265       .  A
C1398      N1429   1.443       .  S
Mg1399     O1406   2.149       .  S
Mg1399     O3807   2.080       .  S
Mg1399     O3800   2.325       .  S
Mg1399     O2628   2.285   1_455  S
O1400     Mg3799   2.325       .  S
O1401      C1405   1.279       .  A
O1402      C3797   1.276   1_455  A
O1402     Mg1409   2.335       .  S
O1403      C1422   1.263       .  A
O1404      C1424   1.270       .  A
O1404     Mg1420   2.351       .  S
O1406     Mg1420   2.120       .  S
O1406      C1417   1.242       .  S
O1407     Mg3799   2.080       .  S
O1408      C3793   1.276   1_455  A
O1408     Mg1420   2.322       .  S
Mg1409     O1425   2.278       .  S
O1410     Mg1426   2.207       .  S
H1411      C1416   1.082       .  S
O1412     Mg1420   2.134       .  S
O1412      C1415   1.240       .  S
H1413      C1415   1.081       .  S
H1414      C1417   1.082       .  S
O1419      C3782   1.276       .  A
C1422      C1782   1.460       .  S
C1422      O1427   1.276       .  A
O1423      C1424   1.266       .  A
C1424      N1436   1.444       .  S
Mg1426     O3784   2.117       .  S
O1428     Mg2599   2.285   1_565  S
N1429      C1433   1.370       .  A
N1429      C1430   1.359       .  A
C1430      C1431   1.378       .  A
C1431      H1434   1.083       .  S
C1431      C1432   1.370       .  A
C1432      H1435   1.082       .  S
C1432      C1433   1.386       .  A
N1436      C1440   1.371       .  A
N1436      C1437   1.360       .  A
C1437      C1743   1.476       .  S
C1437      C1438   1.377       .  A
C1438      H1441   1.083       .  S
C1438      C1439   1.368       .  A
C1439      H1442   1.082       .  S
C1439      C1440   1.387       .  A
N1443      C1447   1.372       .  A
N1443      C1444   1.359       .  A
C1444      C1445   1.377       .  A
C1445      H1448   1.083       .  S
C1445      C1446   1.368       .  A
C1446      H1449   1.083       .  S
C1446      C1447   1.386       .  A
O1450     Mg1452   2.106   1_556  S
O1450     Mg2058   2.129       .  S
O1450      C1485   1.241   1_556  S
C1451      O1464   1.242       .  S
C1451      O1488   1.276       .  A
C1451      H1490   1.081       .  S
Mg1452     O1481   2.136       .  S
Mg1452     O1496   2.319   1_554  S
Mg1452     O1492   2.271       .  S
Mg1452     O1463   2.305       .  S
O1453     Mg1495   2.130       .  S
O1453     Mg2078   2.111       .  S
O1453      C1474   1.241   1_556  S
O1454      C1485   1.275   1_556  A
O1454     Mg2078   2.308       .  S
C1455      O1457   1.268       .  A
C1455      O1469   1.276       .  A
C1455      N1505   1.444       .  S
O1456      C1484   1.275       .  A
O1456     Mg1458   2.310       .  S
O1457     Mg1489   2.271       .  S
Mg1458     O2050   2.129       .  S
Mg1458     O1464   2.131       .  S
Mg1458     O1472   2.294       .  S
Mg1458     O1460   2.311       .  S
C1459      C1644   1.472       .  S
C1459      O1497   1.272       .  A
C1459      O1465   1.273       .  A
O1460      C1467   1.274       .  A
H1461      C1474   1.081       .  S
C1462      O1476   1.241       .  S
C1462      O1477   1.275       .  A
C1462      H1487   1.081   1_554  S
O1463      C1486   1.274       .  A
O1464     Mg1478   2.129       .  S
O1465     Mg1495   2.303   1_554  S
C1466      O1479   1.271       .  A
C1466      O1471   1.276       .  A
C1466      N1498   1.448       .  S
C1467      C1713   1.475       .  S
C1467      O1494   1.273       .  A
Mg1468     O1475   2.107       .  S
Mg1468     O1476   2.130       .  S
Mg1468     O1469   2.306       .  S
Mg1468     O1470   2.309       .  S
Mg1468     O1497   2.264       .  S
O1470      C1474   1.275       .  A
O1471     Mg1478   2.308       .  S
O1472      C1491   1.272       .  A
O1473      C1493   1.269       .  A
O1473     Mg1489   2.278       .  S
O1475     Mg1489   2.131       .  S
O1475      C1486   1.240       .  S
O1476     Mg1495   2.124   1_554  S
O1477     Mg1489   2.308       .  S
Mg1478     O2053   2.111       .  S
Mg1478     O2054   2.308       .  S
Mg1478     O1494   2.267       .  S
O1479     Mg2095   2.285       .  S
H1480      C1485   1.081       .  S
O1481     Mg1489   2.129       .  S
O1481      C2084   1.242   1_554  S
H1482      C1484   1.081       .  S
H1483      C1486   1.081       .  S
C1484      O2081   1.242       .  S
O1488     Mg2095   2.311       .  S
C1491      O2096   1.279       .  A
C1491      N1512   1.448       .  S
O1492      C1493   1.274       .  A
C1493      C1568   1.476       .  S
Mg1495     O2079   2.285       .  S
Mg1495     O2088   2.311       .  S
O1496      C2091   1.279       .  A
N1498      C1502   1.369       .  A
N1498      C1499   1.360       .  A
C1499      C1674   1.470       .  S
C1499      C1500   1.377       .  A
C1500      H1503   1.083       .  S
C1500      C1501   1.366       .  A
C1501      H1504   1.083       .  S
C1501      C1502   1.386       .  A
C1502      C1797   1.480       .  S
N1505      C1509   1.366       .  A
N1505      C1506   1.357       .  A
C1506      C1605   1.467       .  S
C1506      C1507   1.377       .  A
C1507      H1510   1.083       .  S
C1507      C1508   1.367       .  A
C1508      H1511   1.083       .  S
C1508      C1509   1.387       .  A
N1512      C1516   1.369       .  A
N1512      C1513   1.357       .  A
C1513      C1524   1.460       .  S
C1513      C1514   1.375       .  A
C1514      H1517   1.083       .  S
C1514      C1515   1.363       .  A
C1515      H1518   1.083       .  S
C1515      C1516   1.387       .  A
O1519     Mg1521   2.144       .  S
O1519     Mg1527   2.117       .  S
O1519      C1554   1.242       .  S
C1520      O1533   1.241       .  S
C1520      O1557   1.276       .  A
C1520      H1559   1.081       .  S
Mg1521     O2150   2.082       .  S
Mg1521     O2165   2.336       .  S
Mg1521     O4561   2.278   1_454  S
Mg1521     O3932   2.344   1_455  S
O1522     Mg1564   2.120   1_655  S
O1522     Mg1547   2.149   1_655  S
O1522      C3943   1.242       .  S
O1523      C1554   1.279       .  A
O1523     Mg1547   2.338       .  S
C1524      O1526   1.263       .  A
C1524      O2138   1.276       .  A
O1525      C2153   1.276   1_554  A
O1525     Mg1527   2.325       .  S
O1526     Mg1558   2.207       .  S
Mg1527     O1533   2.135       .  S
Mg1527     O1541   2.207       .  S
Mg1527     O1529   2.353       .  S
C1528      O1566   1.266       .  A
C1528      O1534   1.270       .  A
C1528      N1567   1.444       .  S
O1529      C1536   1.270       .  A
H1530      C1543   1.082       .  S
C1531      O3945   1.240       .  S
C1531      O2146   1.275   1_554  A
C1531      H1556   1.081   1_655  S
O1532      C1555   1.280       .  A
O1532     Mg3921   2.344       .  S
O1533     Mg1547   2.080       .  S
O1534     Mg3964   2.351       .  S
C1535      O1548   1.263       .  A
C1535      O1540   1.275       .  A
C1536      O1563   1.266       .  A
C1536      N1574   1.446       .  S
Mg1537     O1544   2.151       .  S
Mg1537     O1545   2.080       .  S
Mg1537     O1538   2.333       .  S
Mg1537     O1539   2.339       .  S
Mg1537     O1566   2.284       .  S
O1538      C2124   1.276   1_554  A
O1539      C1543   1.279       .  A
O1540     Mg1547   2.325       .  S
O1541      C2160   1.263       .  A
O1542      C1562   1.269       .  A
O1542     Mg1558   2.346       .  S
C1543      O3922   1.242       .  S
O1544     Mg2158   2.119   1_554  S
O1544      C1555   1.242       .  S
O1545     Mg3964   2.134       .  S
O1545      C3931   1.240       .  S
O1546      C2131   1.275       .  A
O1546     Mg3958   2.322       .  S
Mg1547     O1563   2.285       .  S
O1548     Mg1564   2.201       .  S
H1549      C1554   1.082       .  S
O1550     Mg2121   2.082       .  S
O1550     Mg3958   2.141   1_455  S
O1550      C1553   1.240       .  S
H1551      C1553   1.081       .  S
H1552      C1555   1.082       .  S
C1553      O2125   1.276       .  A
O1557     Mg1564   2.322       .  S
Mg1558     O2144   2.119       .  S
Mg1558     O3950   2.141       .  S
Mg1558     O3946   2.322       .  S
C1560      O2141   1.263       .  A
C1560      O1565   1.276       .  A
O1561      C1562   1.265       .  A
O1561     Mg4521   2.278       .  S
C1562      N1581   1.443       .  S
Mg1564     O3945   2.134   1_455  S
Mg1564     O3934   2.351   1_455  S
O1565     Mg2121   2.335       .  S
N1567      C1571   1.371       .  A
N1567      C1568   1.360       .  A
C1568      C1569   1.377       .  A
C1569      H1572   1.083       .  S
C1569      C1570   1.368       .  A
C1570      H1573   1.082       .  S
C1570      C1571   1.387       .  A
N1574      C1578   1.372       .  A
N1574      C1575   1.359       .  A
C1575      C1576   1.378       .  A
C1576      H1579   1.083       .  S
C1576      C1577   1.368       .  A
C1577      H1580   1.082       .  S
C1577      C1578   1.386       .  A
N1581      C1585   1.370       .  A
N1581      C1582   1.359       .  A
C1582      C1583   1.378       .  A
C1583      H1586   1.083       .  S
C1583      C1584   1.370       .  A
C1584      H1587   1.082       .  S
C1584      C1585   1.386       .  A
O1588     Mg2190   2.105       .  S
O1588     Mg1596   2.129       .  S
O1588      C1623   1.241   1_556  S
C1589      O1602   1.242       .  S
C1589      O1626   1.275       .  A
C1589      H1628   1.081   1_554  S
Mg1590     O2188   2.105       .  S
Mg1590     O1619   2.132       .  S
Mg1590     O1634   2.303       .  S
O1591     Mg1633   2.128       .  S
O1591     Mg1616   2.097       .  S
O1591      C1612   1.241       .  S
O1592      C1623   1.275       .  A
O1592     Mg1616   2.310       .  S
C1593      O1595   1.270       .  A
C1593      O2207   1.276       .  A
C1593      N1650   1.447       .  S
O1594      C1622   1.275       .  A
O1594     Mg2196   2.308       .  S
Mg1596     O1602   2.130   1_556  S
Mg1596     O2194   2.308       .  S
Mg1596     O2210   2.279       .  S
Mg1596     O1598   2.280   1_556  S
C1597      O1603   1.270       .  A
O1598      C1605   1.270       .  A
H1599      C1612   1.081       .  S
C1600      O2214   1.242       .  S
C1600      O1615   1.275       .  A
C1600      H1625   1.081       .  S
O1601      C1624   1.274       .  A
O1602     Mg1616   2.131       .  S
O1603     Mg1633   2.284       .  S
C1604      O1617   1.269       .  A
C1604      O1609   1.278       .  A
C1604      N1643   1.448       .  S
C1605      O1632   1.272       .  A
Mg1606     O1613   2.103   1_564  S
Mg1606     O1607   2.307   1_554  S
Mg1606     O1608   2.308   1_565  S
Mg1606     O1635   2.255       .  S
O1607      C2193   1.276       .  A
O1609     Mg1616   2.318       .  S
O1610      C1629   1.269       .  A
O1610     Mg2196   2.279       .  S
O1611      C1631   1.272       .  A
O1613      C1624   1.240   1_545  S
O1614     Mg1633   2.128       .  S
O1614      C2200   1.242   1_554  S
O1615     Mg1627   2.310       .  S
Mg1616     O1632   2.258       .  S
O1617     Mg1633   2.283       .  S
H1618      C1623   1.081       .  S
O1619     Mg1627   2.125       .  S
O1619      C1622   1.242       .  S
H1620      C1622   1.081       .  S
H1621      C1624   1.081   1_554  S
O1626     Mg1633   2.310       .  S
C1629      O1634   1.276       .  A
C1629      N1636   1.444       .  S
O1630      C1631   1.272   1_545  A
C1631      C1789   1.470       .  S
N1636      C1640   1.370       .  A
N1636      C1637   1.361       .  A
C1637      C1735   1.475       .  S
C1637      C1638   1.376       .  A
C1638      H1641   1.083       .  S
C1638      C1639   1.369       .  A
C1639      H1642   1.082       .  S
C1639      C1640   1.388       .  A
N1643      C1647   1.372       .  A
N1643      C1644   1.361       .  A
C1644      C1645   1.376       .  A
C1645      H1648   1.083       .  S
C1645      C1646   1.367       .  A
C1646      H1649   1.083       .  S
C1646      C1647   1.387       .  A
N1650      C1654   1.370       .  A
N1650      C1651   1.361       .  A
C1651      C1652   1.377       .  A
C1652      H1655   1.083   1_565  S
C1652      C1653   1.369       .  A
C1653      H1656   1.083       .  S
C1653      C1654   1.386       .  A
O1657     Mg1659   2.103       .  S
O1657     Mg1665   2.127       .  S
O1657      C1692   1.240       .  S
C1658      O1671   1.242       .  S
C1658      O1695   1.275       .  A
C1658      H1697   1.081       .  S
Mg1659     O1688   2.130       .  S
Mg1659     O1703   2.307       .  S
Mg1659     O1699   2.255       .  S
Mg1659     O1670   2.308       .  S
O1660     Mg1702   2.129       .  S
O1660     Mg1685   2.105       .  S
O1660      C1681   1.241       .  S
O1661      C1692   1.274       .  A
O1661     Mg1685   2.306       .  S
C1662      O1664   1.269       .  A
C1662      O1676   1.278       .  A
C1662      N1705   1.448       .  S
O1663      C1691   1.275       .  A
O1663     Mg1665   2.310       .  S
O1664     Mg1696   2.283       .  S
Mg1665     O1671   2.125       .  S
Mg1665     O1679   2.280       .  S
Mg1665     O1667   2.293       .  S
C1666      C1775   1.467       .  S
C1666      O1704   1.272       .  A
C1666      O1672   1.270       .  A
O1667      C1674   1.272       .  A
H1668      C1681   1.081       .  S
C1669      O1683   1.242       .  S
C1669      O1684   1.275       .  A
C1669      H1694   1.081       .  S
O1670      C1693   1.275       .  A
O1671     Mg1685   2.132       .  S
O1672     Mg1702   2.280       .  S
C1673      O1686   1.269       .  A
C1673      O1678   1.276       .  A
C1673      N1712   1.444       .  S
C1674      O1701   1.272       .  A
Mg1675     O1682   2.097       .  S
Mg1675     O1683   2.131       .  S
Mg1675     O1676   2.318       .  S
Mg1675     O1677   2.310       .  S
Mg1675     O1704   2.258       .  S
O1677      C1681   1.275       .  A
O1678     Mg1685   2.303       .  S
O1679      C1698   1.270       .  A
O1680      C1700   1.270       .  A
O1680     Mg1696   2.284       .  S
O1682     Mg1696   2.128       .  S
O1682      C1693   1.241       .  S
O1683     Mg1702   2.130       .  S
O1684     Mg1696   2.310       .  S
Mg1685     O1701   2.263       .  S
O1686     Mg1702   2.279       .  S
H1687      C1692   1.081       .  S
O1688     Mg1696   2.128       .  S
O1688      C1691   1.242       .  S
H1689      C1691   1.081       .  S
H1690      C1693   1.081       .  S
O1695     Mg1702   2.308       .  S
C1698      O1703   1.276       .  A
C1698      N1719   1.447       .  S
O1699      C1700   1.272       .  A
N1705      C1709   1.372       .  A
N1705      C1706   1.361       .  A
C1706      C1769   1.472       .  S
C1706      C1707   1.376       .  A
C1707      H1710   1.083       .  S
C1707      C1708   1.367       .  A
C1708      H1711   1.083       .  S
C1708      C1709   1.387       .  A
N1712      C1716   1.370       .  A
N1712      C1713   1.361       .  A
C1713      C1714   1.376       .  A
C1714      H1717   1.083       .  S
C1714      C1715   1.369       .  A
C1715      H1718   1.082       .  S
C1715      C1716   1.388       .  A
N1719      C1723   1.370       .  A
N1719      C1720   1.361       .  A
C1720      C1721   1.377       .  A
C1721      H1724   1.083       .  S
C1721      C1722   1.369       .  A
C1722      H1725   1.083       .  S
C1722      C1723   1.386       .  A
O1726     Mg1734   2.131       .  S
O1726      C1761   1.240       .  S
C1727      O1740   1.242       .  S
C1727      O1764   1.275       .  A
C1727      H1766   1.081       .  S
Mg1728     O1757   2.130       .  S
Mg1728     O1772   2.306       .  S
Mg1728     O1768   2.264       .  S
O1729     Mg1771   2.129       .  S
O1729     Mg1754   2.106       .  S
O1729      C1750   1.241       .  S
O1730      C1761   1.274       .  A
O1730     Mg1754   2.305       .  S
C1731      O1733   1.271       .  A
C1731      N1788   1.448       .  S
O1732      C1760   1.275       .  A
O1733     Mg1765   2.285       .  S
Mg1734     O1740   2.129       .  S
Mg1734     O1736   2.278       .  S
C1735      O1773   1.273       .  A
C1735      O1741   1.274       .  A
O1736      C1743   1.269       .  A
H1737      C1750   1.081       .  S
C1738      O1753   1.276       .  A
C1738      H1763   1.081       .  S
O1739      C1762   1.275       .  A
O1740     Mg1754   2.136       .  S
O1741     Mg1771   2.310       .  S
C1742      O1755   1.272       .  A
C1742      O1747   1.279       .  A
C1742      N1781   1.448       .  S
C1743      O1770   1.274       .  A
Mg1744     O1751   2.111       .  S
Mg1744     O1752   2.128       .  S
Mg1744     O1745   2.308       .  S
Mg1744     O1746   2.308       .  S
Mg1744     O1773   2.267       .  S
O1746      C1750   1.275       .  A
O1747     Mg1754   2.319       .  S
O1748      C1767   1.268       .  A
O1749      C1769   1.273       .  A
O1749     Mg1765   2.303       .  S
O1751      C1762   1.241       .  S
O1752     Mg1771   2.131       .  S
O1753     Mg1765   2.311       .  S
Mg1754     O1770   2.271       .  S
O1755     Mg1771   2.294       .  S
H1756      C1761   1.081       .  S
O1757     Mg1765   2.124       .  S
O1757      C1760   1.241       .  S
H1758      C1760   1.081       .  S
H1759      C1762   1.081       .  S
O1764     Mg1771   2.310       .  S
C1767      O1772   1.276       .  A
C1767      N1774   1.444       .  S
O1768      C1769   1.272       .  A
N1774      C1778   1.366       .  A
N1774      C1775   1.357       .  A
C1775      C1776   1.377       .  A
C1776      H1779   1.083       .  S
C1776      C1777   1.367       .  A
C1777      H1780   1.083       .  S
C1777      C1778   1.387       .  A
N1781      C1785   1.369       .  A
N1781      C1782   1.357       .  A
C1782      C1783   1.375       .  A
C1783      H1786   1.083       .  S
C1783      C1784   1.363       .  A
C1784      H1787   1.083       .  S
C1784      C1785   1.387       .  A
C1785      C1799   1.476       .  S
N1788      C1792   1.369       .  A
N1788      C1789   1.360       .  A
C1789      C1790   1.377       .  A
C1790      H1793   1.083       .  S
C1790      C1791   1.366       .  A
C1791      H1794   1.083       .  S
C1791      C1792   1.386       .  A
C1795      N1796   1.363       .  A
C1795      N1800   1.352       .  A
N1796      C1797   1.354       .  A
C1797      N1798   1.362       .  A
N1798      C1799   1.354       .  A
C1799      N1800   1.362       .  A
C1801      N1802   1.354       .  A
C1801      N1806   1.362       .  A
C1801      C2116   1.476       .  S
N1802      C1803   1.362       .  A
C1803      N1804   1.354       .  A
C1803      C2392   1.480       .  S
N1804      C1805   1.363       .  A
C1805      N1806   1.352       .  A
C1805      C1978   1.478       .  S
C1807      N1808   1.356       .  A
C1807      N1812   1.361       .  A
C1807      C2378   1.479       .  S
N1808      C1809   1.363       .  A
C1809      N1810   1.353       .  A
C1809      C1909   1.480       .  S
N1810      C1811   1.361       .  A
C1811      N1812   1.352       .  A
C1811      C1971   1.475       .  S
C1813      N1814   1.358       .  A
C1813      N1818   1.365       .  A
C1813      C2171   1.489       .  S
N1814      C1815   1.368       .  A
C1815      N1816   1.355       .  A
C1815      C2047   1.486       .  S
N1816      C1817   1.364       .  A
C1817      N1818   1.356       .  A
C1817      C2309   1.487       .  S
C1819      N1820   1.368       .  A
C1819      N1824   1.355       .  A
C1819      C2178   1.486       .  S
N1820      C1821   1.358       .  A
C1821      N1822   1.365       .  A
C1821      C2040   1.489       .  S
N1822      C1823   1.356       .  A
C1823      N1824   1.364       .  A
C1823      C2247   1.487       .  S
C1825      N1826   1.361       .  A
C1825      N1830   1.352       .  A
C1825      C1902   1.475       .  S
N1826      C1827   1.353       .  A
C1827      N1828   1.363       .  A
C1827      C1964   1.480       .  S
N1828      C1829   1.356       .  A
C1829      N1830   1.361       .  A
C1829      C2109   1.479       .  S
C1831      N1832   1.365       .  A
C1831      N1836   1.355       .  A
C1831      C2323   1.484       .  S
N1832      C1833   1.357       .  A
C1833      N1834   1.367       .  A
C1833      C2185   1.487       .  S
N1834      C1835   1.358       .  A
C1835      N1836   1.362       .  A
C1835      C2240   1.489       .  S
C1837      N1838   1.367       .  A
C1837      N1842   1.357       .  A
C1837      C2033   1.487       .  S
N1838      C1839   1.358       .  A
C1839      N1840   1.362       .  A
C1839      C2316   1.489       .  S
N1840      C1841   1.355       .  A
C1841      N1842   1.365       .  A
C1841      C2254   1.484       .  S
O1843     Mg1845   2.102       .  S
O1843     Mg1851   2.131       .  S
O1843      C1878   1.240       .  S
C1844      O1857   1.242       .  S
C1844      O1881   1.276       .  A
C1844      H1883   1.081       .  S
Mg1845     O4274   2.138       .  S
Mg1845     O1889   2.323       .  S
O1846     Mg1888   2.131       .  S
O1846     Mg1871   2.111   1_554  S
O1846      C1867   1.241   1_554  S
O1847     Mg4271   2.303   1_554  S
C1848      O1850   1.268       .  A
C1848      O1862   1.278       .  A
C1848      N1905   1.446       .  S
O1849      C1877   1.275       .  A
O1849     Mg4251   2.306       .  S
O1850     Mg1882   2.274   1_565  S
Mg1851     O4257   2.133       .  S
Mg1851     O4249   2.307       .  S
Mg1851     O1865   2.278       .  S
Mg1851     O1853   2.286       .  S
C1852      C2251   1.475   1_545  S
C1852      O1890   1.274   1_546  A
H1854      C1867   1.081       .  S
C1855      O1869   1.242       .  S
C1855      O1870   1.275       .  A
C1855      H1880   1.081       .  S
O1856      C4279   1.274   1_545  A
O1857     Mg4251   2.133       .  S
O1858     Mg1888   2.306   1_556  S
C1859      O1872   1.271       .  A
C1859      O1864   1.280       .  A
C1859      N1891   1.448       .  S
C1860      C2182   1.477   1_554  S
C1860      O1887   1.275   1_554  A
Mg1861     O1868   2.107   1_565  S
Mg1861     O1862   2.314       .  S
O1864     Mg1871   2.319       .  S
O1865      C1884   1.269       .  A
O1866      C4286   1.269       .  A
O1866     Mg1882   2.272   1_565  S
O1868     Mg1882   2.133       .  S
O1868      C1879   1.240   1_545  S
Mg1871     O4247   2.303   1_456  S
Mg1871     O4287   2.272       .  S
O1872     Mg1888   2.290   1_556  S
H1873      C1878   1.081       .  S
O1874     Mg4245   2.138   1_455  S
O1874      C1877   1.241       .  S
H1875      C1877   1.081       .  S
H1876      C1879   1.081       .  S
C1879      O4256   1.274   1_565  A
C1884      O1889   1.281       .  A
C1884      N1898   1.445       .  S
O1885      C1886   1.275   1_545  A
C1886      C2044   1.475       .  S
C1886      O4266   1.269       .  A
O1887     Mg4271   2.272       .  S
N1891      C1895   1.370       .  A
N1891      C1892   1.357       .  A
C1892      C2160   1.463   1_556  S
C1892      C1893   1.375       .  A
C1893      H1896   1.083       .  S
C1893      C1894   1.364       .  A
C1894      H1897   1.083       .  S
C1894      C1895   1.386       .  A
C1895      C2395   1.478       .  S
N1898      C1902   1.367       .  A
N1898      C1899   1.353       .  A
C1899      C1986   1.458       .  S
C1899      C1900   1.376       .  A
C1900      H1903   1.082       .  S
C1900      C1901   1.365       .  A
C1901      H1904   1.083       .  S
C1901      C1902   1.387       .  A
N1905      C1909   1.368       .  A
N1905      C1906   1.357       .  A
C1906      C1907   1.377       .  A
C1907      H1910   1.082   1_565  S
C1907      C1908   1.368       .  A
C1908      H1911   1.083       .  S
C1908      C1909   1.386       .  A
O1912     Mg1914   2.111   1_655  S
O1912     Mg4320   2.131       .  S
O1912      C1947   1.241   1_655  S
C1913      O1926   1.242       .  S
C1913      O1950   1.275       .  A
C1913      H1952   1.081       .  S
Mg1914     O1943   2.135       .  S
Mg1914     O1958   2.319   1_455  S
Mg1914     O1954   2.272       .  S
Mg1914     O1925   2.303       .  S
O1915     Mg1957   2.133       .  S
O1915     Mg4340   2.107       .  S
O1915      C1936   1.240   1_655  S
O1916      C1947   1.275   1_655  A
O1916     Mg4340   2.310       .  S
C1917      O1919   1.269       .  A
C1917      O1931   1.281       .  A
C1917      N1967   1.445       .  S
O1918      C1946   1.276       .  A
O1918     Mg1920   2.312       .  S
O1919     Mg1951   2.278       .  S
Mg1920     O4312   2.131       .  S
Mg1920     O1926   2.127       .  S
Mg1920     O1934   2.290       .  S
Mg1920     O1922   2.306       .  S
C1921      C2175   1.475       .  S
C1921      O1959   1.275       .  A
C1921      O1927   1.269       .  A
O1922      C1929   1.274       .  A
H1923      C1936   1.081       .  S
C1924      O1938   1.241       .  S
C1924      O1939   1.275       .  A
C1924      H1949   1.081   1_455  S
O1925      C1948   1.274       .  A
O1926     Mg1940   2.130       .  S
O1927     Mg1957   2.273   1_455  S
C1928      O1941   1.268       .  A
C1928      O1933   1.278       .  A
C1928      N1960   1.446       .  S
C1929      C2320   1.476       .  S
C1929      O1956   1.274       .  A
Mg1930     O1937   2.102       .  S
Mg1930     O1938   2.138       .  S
Mg1930     O1931   2.323       .  S
Mg1930     O1932   2.303       .  S
Mg1930     O1959   2.272       .  S
O1932      C1936   1.274       .  A
O1933     Mg1940   2.314       .  S
O1934      C1953   1.271       .  A
O1935      C1955   1.270       .  A
O1935     Mg1951   2.286       .  S
O1937     Mg1951   2.131       .  S
O1937      C1948   1.240       .  S
O1938     Mg1957   2.129   1_455  S
O1939     Mg1951   2.307       .  S
Mg1940     O4315   2.107       .  S
Mg1940     O4316   2.310       .  S
Mg1940     O1956   2.272       .  S
O1941     Mg4357   2.274       .  S
H1942      C1947   1.081       .  S
O1943     Mg1951   2.133       .  S
O1943      C4346   1.242   1_455  S
H1944      C1946   1.081       .  S
H1945      C1948   1.081       .  S
C1946      O4343   1.242       .  S
O1950     Mg4357   2.307       .  S
C1953      O4358   1.280       .  A
C1953      N1974   1.448       .  S
O1954      C1955   1.275       .  A
C1955      C2030   1.477       .  S
Mg1957     O4341   2.274       .  S
Mg1957     O4350   2.307       .  S
O1958      C4353   1.280       .  A
N1960      C1964   1.368       .  A
N1960      C1961   1.357       .  A
C1961      C2300   1.468       .  S
C1961      C1962   1.377       .  A
C1962      H1965   1.082       .  S
C1962      C1963   1.368       .  A
C1963      H1966   1.083       .  S
C1963      C1964   1.386       .  A
N1967      C1971   1.367       .  A
N1967      C1968   1.353       .  A
C1968      C2135   1.458       .  S
C1968      C1969   1.375       .  A
C1969      H1972   1.082       .  S
C1969      C1970   1.365       .  A
C1970      H1973   1.083       .  S
C1970      C1971   1.387       .  A
N1974      C1978   1.370       .  A
N1974      C1975   1.357       .  A
C1975      C1997   1.463       .  S
C1975      C1976   1.375       .  A
C1976      H1979   1.083       .  S
C1976      C1977   1.364       .  A
C1977      H1980   1.083       .  S
C1977      C1978   1.386       .  A
O1981     Mg1983   2.151       .  S
O1981     Mg1989   2.119       .  S
C1982      O4419   1.276   1_455  A
C1982      H2021   1.081       .  S
Mg1983     O2012   2.080       .  S
Mg1983     O2027   2.333       .  S
Mg1983     O2023   2.284       .  S
Mg1983     O1994   2.339       .  S
O1984     Mg4426   2.117   1_455  S
O1984     Mg2009   2.144       .  S
O1984      C2005   1.242       .  S
O1985      C2016   1.280       .  A
O1985     Mg2009   2.344       .  S
C1986      O4388   1.263       .  A
C1986      O2000   1.275       .  A
O1987      C2015   1.275       .  A
O1987     Mg1989   2.322       .  S
O1988      C4386   1.263       .  A
O1988     Mg2020   2.201       .  S
Mg1989     O2003   2.207       .  S
C1990      O2028   1.266       .  A
C1990      O1996   1.270       .  A
C1990      N2043   1.446       .  S
O1991      C1998   1.269       .  A
H1992      C2005   1.082       .  S
C1993      O2007   1.241       .  S
C1993      O4408   1.276       .  A
C1993      H2018   1.081       .  S
O1994      C2017   1.279       .  A
O1995     Mg2009   2.082       .  S
O1996     Mg2026   2.354       .  S
C1997      O2010   1.263       .  A
C1997      O4402   1.276       .  A
C1998      O2025   1.265       .  A
C1998      N2029   1.443       .  S
Mg1999     O2006   2.149       .  S
Mg1999     O4407   2.080       .  S
Mg1999     O4400   2.325       .  S
Mg1999     O3228   2.285   1_455  S
O2000     Mg4399   2.325       .  S
O2001      C2005   1.279       .  A
O2002      C4397   1.276   1_455  A
O2002     Mg2009   2.335       .  S
O2003      C2022   1.263       .  A
O2004      C2024   1.270       .  A
O2004     Mg2020   2.351       .  S
O2006     Mg2020   2.120       .  S
O2006      C2017   1.242       .  S
O2007     Mg4399   2.080       .  S
O2008      C4393   1.276   1_455  A
O2008     Mg2020   2.322       .  S
Mg2009     O2025   2.278       .  S
O2010     Mg2026   2.207       .  S
H2011      C2016   1.082       .  S
O2012     Mg2020   2.134       .  S
O2012      C2015   1.240       .  S
H2013      C2015   1.081       .  S
H2014      C2017   1.082       .  S
O2019      C4382   1.276       .  A
C2022      C2382   1.460       .  S
C2022      O2027   1.276       .  A
O2023      C2024   1.266       .  A
C2024      N2036   1.444       .  S
Mg2026     O4384   2.117       .  S
O2028     Mg3199   2.285   1_565  S
N2029      C2033   1.370       .  A
N2029      C2030   1.359       .  A
C2030      C2031   1.378       .  A
C2031      H2034   1.083       .  S
C2031      C2032   1.370       .  A
C2032      H2035   1.082       .  S
C2032      C2033   1.386       .  A
N2036      C2040   1.371       .  A
N2036      C2037   1.360       .  A
C2037      C2343   1.476       .  S
C2037      C2038   1.377       .  A
C2038      H2041   1.083       .  S
C2038      C2039   1.368       .  A
C2039      H2042   1.082       .  S
C2039      C2040   1.387       .  A
N2043      C2047   1.372       .  A
N2043      C2044   1.359       .  A
C2044      C2045   1.378       .  A
C2045      H2048   1.083       .  S
C2045      C2046   1.368       .  A
C2046      H2049   1.083       .  S
C2046      C2047   1.386       .  A
O2050     Mg2052   2.106       .  S
O2050      C2085   1.241       .  S
C2051      O2064   1.242       .  S
C2051      O2088   1.276       .  A
C2051      H2090   1.081       .  S
Mg2052     O2081   2.136       .  S
Mg2052     O2096   2.319       .  S
Mg2052     O2092   2.271       .  S
Mg2052     O2063   2.305       .  S
O2053     Mg2095   2.129       .  S
O2053      C2074   1.241       .  S
O2054      C2085   1.275       .  A
C2055      O2057   1.268       .  A
C2055      O2069   1.276       .  A
C2055      N2105   1.444       .  S
O2056      C2084   1.275       .  A
O2056     Mg2058   2.310       .  S
O2057     Mg2089   2.271       .  S
Mg2058     O2064   2.131       .  S
Mg2058     O2072   2.294       .  S
Mg2058     O2060   2.311       .  S
C2059      C2244   1.472       .  S
C2059      O2097   1.272       .  A
C2059      O2065   1.273       .  A
O2060      C2067   1.274       .  A
H2061      C2074   1.081       .  S
C2062      O2076   1.241       .  S
C2062      O2077   1.275       .  A
C2062      H2087   1.081       .  S
O2063      C2086   1.274       .  A
O2064     Mg2078   2.128       .  S
O2065     Mg2095   2.303       .  S
C2066      O2079   1.271       .  A
C2066      O2071   1.276       .  A
C2066      N2098   1.448       .  S
C2067      C2313   1.475       .  S
C2067      O2094   1.273       .  A
Mg2068     O2075   2.107       .  S
Mg2068     O2076   2.130       .  S
Mg2068     O2069   2.306       .  S
Mg2068     O2070   2.309       .  S
Mg2068     O2097   2.264       .  S
O2070      C2074   1.275       .  A
O2071     Mg2078   2.308       .  S
O2072      C2091   1.272       .  A
O2073      C2093   1.269       .  A
O2073     Mg2089   2.278       .  S
O2075     Mg2089   2.131       .  S
O2075      C2086   1.240       .  S
O2076     Mg2095   2.124       .  S
O2077     Mg2089   2.308       .  S
Mg2078     O2094   2.267       .  S
H2080      C2085   1.081       .  S
O2081     Mg2089   2.129       .  S
H2082      C2084   1.081       .  S
H2083      C2086   1.081       .  S
C2091      N2112   1.448       .  S
O2092      C2093   1.274       .  A
C2093      C2168   1.476       .  S
N2098      C2102   1.369       .  A
N2098      C2099   1.360       .  A
C2099      C2274   1.470       .  S
C2099      C2100   1.377       .  A
C2100      H2103   1.083       .  S
C2100      C2101   1.366       .  A
C2101      H2104   1.083       .  S
C2101      C2102   1.386       .  A
C2102      C2397   1.480       .  S
N2105      C2109   1.366       .  A
N2105      C2106   1.357       .  A
C2106      C2205   1.467       .  S
C2106      C2107   1.377       .  A
C2107      H2110   1.083       .  S
C2107      C2108   1.367       .  A
C2108      H2111   1.083       .  S
C2108      C2109   1.387       .  A
N2112      C2116   1.369       .  A
N2112      C2113   1.357       .  A
C2113      C2124   1.460       .  S
C2113      C2114   1.375       .  A
C2114      H2117   1.083       .  S
C2114      C2115   1.363       .  A
C2115      H2118   1.083       .  S
C2115      C2116   1.387       .  A
O2119     Mg2121   2.144       .  S
O2119     Mg2127   2.117       .  S
O2119      C2154   1.242       .  S
C2120      O2133   1.241       .  S
C2120      O2157   1.276       .  A
C2120      H2159   1.081       .  S
Mg2121     O3961   2.278   1_455  S
Mg2121     O4532   2.344   1_455  S
O2122     Mg2164   2.120   1_655  S
O2122     Mg2147   2.149   1_655  S
O2122      C4543   1.242       .  S
O2123      C2154   1.279       .  A
O2123     Mg2147   2.338       .  S
C2124      O2126   1.263       .  A
O2125     Mg2127   2.325       .  S
O2126     Mg2158   2.207       .  S
Mg2127     O2133   2.134       .  S
Mg2127     O2141   2.207       .  S
Mg2127     O2129   2.354       .  S
C2128      O2166   1.266       .  A
C2128      O2134   1.270       .  A
C2128      N2167   1.444       .  S
O2129      C2136   1.270       .  A
H2130      C2143   1.082       .  S
C2131      O4545   1.240       .  S
C2131      H2156   1.081   1_655  S
O2132      C2155   1.280       .  A
O2132     Mg4521   2.344       .  S
O2133     Mg2147   2.080       .  S
O2134     Mg4564   2.351       .  S
C2135      O2148   1.263       .  A
C2135      O2140   1.275       .  A
C2136      O2163   1.266       .  A
C2136      N2174   1.446       .  S
Mg2137     O2144   2.151       .  S
Mg2137     O2145   2.080       .  S
Mg2137     O2138   2.333       .  S
Mg2137     O2139   2.339       .  S
Mg2137     O2166   2.284       .  S
O2139      C2143   1.279       .  A
O2140     Mg2147   2.325       .  S
O2142      C2162   1.269       .  A
O2142     Mg2158   2.346       .  S
C2143      O4522   1.242       .  S
O2144      C2155   1.242       .  S
O2145     Mg4564   2.134       .  S
O2145      C4531   1.240       .  S
O2146     Mg4558   2.322       .  S
Mg2147     O2163   2.284       .  S
O2148     Mg2164   2.201       .  S
H2149      C2154   1.082       .  S
O2150     Mg4558   2.141   1_454  S
O2150      C2153   1.240   1_554  S
H2151      C2153   1.081       .  S
H2152      C2155   1.082       .  S
O2157     Mg2164   2.322       .  S
Mg2158     O4550   2.141   1_556  S
Mg2158     O4546   2.322       .  S
C2160      O2165   1.276       .  A
O2161      C2162   1.265       .  A
O2161     Mg3921   2.278   1_556  S
C2162      N2181   1.443       .  S
Mg2164     O4545   2.134   1_455  S
Mg2164     O4534   2.351   1_455  S
N2167      C2171   1.371       .  A
N2167      C2168   1.360       .  A
C2168      C2169   1.377       .  A
C2169      H2172   1.083       .  S
C2169      C2170   1.368       .  A
C2170      H2173   1.082       .  S
C2170      C2171   1.387       .  A
N2174      C2178   1.372       .  A
N2174      C2175   1.359       .  A
C2175      C2176   1.378       .  A
C2176      H2179   1.083       .  S
C2176      C2177   1.368       .  A
C2177      H2180   1.083       .  S
C2177      C2178   1.386       .  A
N2181      C2185   1.370       .  A
N2181      C2182   1.359       .  A
C2182      C2183   1.378   1_556  A
C2183      H2186   1.083       .  S
C2183      C2184   1.370   1_554  A
C2184      H2187   1.082       .  S
C2184      C2185   1.386       .  A
O2188     Mg2196   2.129       .  S
O2188      C2223   1.241       .  S
C2189      O2202   1.242       .  S
C2189      O2226   1.275       .  A
C2189      H2228   1.081       .  S
Mg2190     O2219   2.132       .  S
Mg2190     O2234   2.303       .  S
O2191     Mg2233   2.128       .  S
O2191     Mg2216   2.097       .  S
O2191      C2212   1.241       .  S
O2192      C2223   1.275       .  A
O2192     Mg2216   2.310       .  S
C2193      O2195   1.270       .  A
C2193      N2250   1.447       .  S
O2194      C2222   1.275       .  A
Mg2196     O2202   2.130       .  S
Mg2196     O2198   2.280       .  S
C2197      O2203   1.270       .  A
O2198      C2205   1.270       .  A
H2199      C2212   1.081       .  S
C2200      O2215   1.275       .  A
C2200      H2225   1.081       .  S
O2201      C2224   1.274       .  A
O2202     Mg2216   2.131       .  S
O2203     Mg2233   2.284       .  S
C2204      O2217   1.269       .  A
C2204      O2209   1.278       .  A
C2204      N2243   1.448       .  S
C2205      O2232   1.272       .  A
Mg2206     O2213   2.103   1_565  S
Mg2206     O2207   2.307       .  S
Mg2206     O2208   2.308   1_565  S
Mg2206     O2235   2.255       .  S
O2209     Mg2216   2.318       .  S
O2210      C2229   1.269       .  A
O2211      C2231   1.272       .  A
O2213      C2224   1.240   1_545  S
O2214     Mg2233   2.128       .  S
O2215     Mg2227   2.310       .  S
Mg2216     O2232   2.258       .  S
O2217     Mg2233   2.283       .  S
H2218      C2223   1.081       .  S
O2219     Mg2227   2.125       .  S
O2219      C2222   1.242       .  S
H2220      C2222   1.081       .  S
H2221      C2224   1.081       .  S
O2226     Mg2233   2.310       .  S
C2229      O2234   1.276       .  A
C2229      N2236   1.444       .  S
O2230      C2231   1.272   1_545  A
C2231      C2389   1.470       .  S
N2236      C2240   1.370       .  A
N2236      C2237   1.361       .  A
C2237      C2335   1.475       .  S
C2237      C2238   1.376       .  A
C2238      H2241   1.083       .  S
C2238      C2239   1.369       .  A
C2239      H2242   1.082       .  S
C2239      C2240   1.388       .  A
N2243      C2247   1.372       .  A
N2243      C2244   1.361       .  A
C2244      C2245   1.376       .  A
C2245      H2248   1.083       .  S
C2245      C2246   1.367       .  A
C2246      H2249   1.083       .  S
C2246      C2247   1.387       .  A
N2250      C2254   1.370       .  A
N2250      C2251   1.361       .  A
C2251      C2252   1.377       .  A
C2252      H2255   1.083   1_565  S
C2252      C2253   1.369       .  A
C2253      H2256   1.083       .  S
C2253      C2254   1.386       .  A
O2257     Mg2259   2.103       .  S
O2257     Mg2265   2.127       .  S
O2257      C2292   1.240       .  S
C2258      O2271   1.242       .  S
C2258      O2295   1.275       .  A
C2258      H2297   1.081       .  S
Mg2259     O2288   2.130       .  S
Mg2259     O2303   2.307       .  S
Mg2259     O2299   2.255       .  S
Mg2259     O2270   2.308       .  S
O2260     Mg2302   2.129       .  S
O2260     Mg2285   2.105       .  S
O2260      C2281   1.241       .  S
O2261      C2292   1.274       .  A
O2261     Mg2285   2.306       .  S
C2262      O2264   1.269       .  A
C2262      O2276   1.278       .  A
C2262      N2305   1.448       .  S
O2263      C2291   1.275       .  A
O2263     Mg2265   2.310       .  S
O2264     Mg2296   2.283       .  S
Mg2265     O2271   2.125       .  S
Mg2265     O2279   2.280       .  S
Mg2265     O2267   2.293       .  S
C2266      C2375   1.467       .  S
C2266      O2304   1.272       .  A
C2266      O2272   1.270       .  A
O2267      C2274   1.272       .  A
H2268      C2281   1.081       .  S
C2269      O2283   1.242       .  S
C2269      O2284   1.275       .  A
C2269      H2294   1.081       .  S
O2270      C2293   1.275       .  A
O2271     Mg2285   2.132       .  S
O2272     Mg2302   2.280       .  S
C2273      O2286   1.269       .  A
C2273      O2278   1.276       .  A
C2273      N2312   1.444       .  S
C2274      O2301   1.272       .  A
Mg2275     O2282   2.097       .  S
Mg2275     O2283   2.131       .  S
Mg2275     O2276   2.318       .  S
Mg2275     O2277   2.310       .  S
Mg2275     O2304   2.258       .  S
O2277      C2281   1.275       .  A
O2278     Mg2285   2.303       .  S
O2279      C2298   1.270       .  A
O2280      C2300   1.270       .  A
O2280     Mg2296   2.284       .  S
O2282     Mg2296   2.128       .  S
O2282      C2293   1.241       .  S
O2283     Mg2302   2.130       .  S
O2284     Mg2296   2.310       .  S
Mg2285     O2301   2.263       .  S
O2286     Mg2302   2.279       .  S
H2287      C2292   1.081       .  S
O2288     Mg2296   2.128       .  S
O2288      C2291   1.242       .  S
H2289      C2291   1.081       .  S
H2290      C2293   1.081       .  S
O2295     Mg2302   2.308       .  S
C2298      O2303   1.276       .  A
C2298      N2319   1.447       .  S
O2299      C2300   1.272       .  A
N2305      C2309   1.372       .  A
N2305      C2306   1.361       .  A
C2306      C2369   1.472       .  S
C2306      C2307   1.376       .  A
C2307      H2310   1.083       .  S
C2307      C2308   1.367       .  A
C2308      H2311   1.083       .  S
C2308      C2309   1.387       .  A
N2312      C2316   1.370       .  A
N2312      C2313   1.361       .  A
C2313      C2314   1.376       .  A
C2314      H2317   1.083       .  S
C2314      C2315   1.369       .  A
C2315      H2318   1.082       .  S
C2315      C2316   1.388       .  A
N2319      C2323   1.370       .  A
N2319      C2320   1.361       .  A
C2320      C2321   1.377       .  A
C2321      H2324   1.083       .  S
C2321      C2322   1.369       .  A
C2322      H2325   1.083       .  S
C2322      C2323   1.386       .  A
O2326     Mg2334   2.131       .  S
O2326      C2361   1.240       .  S
C2327      O2340   1.242       .  S
C2327      O2364   1.275       .  A
C2327      H2366   1.081       .  S
Mg2328     O2357   2.130       .  S
Mg2328     O2372   2.306       .  S
Mg2328     O2368   2.264       .  S
O2329     Mg2371   2.129       .  S
O2329     Mg2354   2.106       .  S
O2329      C2350   1.241       .  S
O2330      C2361   1.274       .  A
O2330     Mg2354   2.305       .  S
C2331      O2333   1.271       .  A
C2331      N2388   1.448       .  S
O2332      C2360   1.275       .  A
O2333     Mg2365   2.285       .  S
Mg2334     O2340   2.129       .  S
Mg2334     O2336   2.278       .  S
C2335      O2373   1.273       .  A
C2335      O2341   1.274       .  A
O2336      C2343   1.269       .  A
H2337      C2350   1.081       .  S
C2338      O2353   1.276       .  A
C2338      H2363   1.081       .  S
O2339      C2362   1.275       .  A
O2340     Mg2354   2.136       .  S
O2341     Mg2371   2.311       .  S
C2342      O2355   1.272       .  A
C2342      O2347   1.279       .  A
C2342      N2381   1.448       .  S
C2343      O2370   1.274       .  A
Mg2344     O2351   2.111       .  S
Mg2344     O2352   2.128       .  S
Mg2344     O2345   2.308       .  S
Mg2344     O2346   2.308       .  S
Mg2344     O2373   2.267       .  S
O2346      C2350   1.275       .  A
O2347     Mg2354   2.318       .  S
O2348      C2367   1.268       .  A
O2349      C2369   1.273       .  A
O2349     Mg2365   2.303       .  S
O2351      C2362   1.241       .  S
O2352     Mg2371   2.131       .  S
O2353     Mg2365   2.311       .  S
Mg2354     O2370   2.271       .  S
O2355     Mg2371   2.294       .  S
H2356      C2361   1.081       .  S
O2357     Mg2365   2.124       .  S
O2357      C2360   1.241       .  S
H2358      C2360   1.081       .  S
H2359      C2362   1.081       .  S
O2364     Mg2371   2.310       .  S
C2367      O2372   1.276       .  A
C2367      N2374   1.444       .  S
O2368      C2369   1.272       .  A
N2374      C2378   1.366       .  A
N2374      C2375   1.357       .  A
C2375      C2376   1.377       .  A
C2376      H2379   1.083       .  S
C2376      C2377   1.367       .  A
C2377      H2380   1.083       .  S
C2377      C2378   1.387       .  A
N2381      C2385   1.369       .  A
N2381      C2382   1.357       .  A
C2382      C2383   1.375       .  A
C2383      H2386   1.083       .  S
C2383      C2384   1.363       .  A
C2384      H2387   1.083       .  S
C2384      C2385   1.387       .  A
C2385      C2399   1.476       .  S
N2388      C2392   1.369       .  A
N2388      C2389   1.360       .  A
C2389      C2390   1.377       .  A
C2390      H2393   1.083       .  S
C2390      C2391   1.366       .  A
C2391      H2394   1.083       .  S
C2391      C2392   1.386       .  A
C2395      N2396   1.363       .  A
C2395      N2400   1.352       .  A
N2396      C2397   1.354       .  A
C2397      N2398   1.362       .  A
N2398      C2399   1.354       .  A
C2399      N2400   1.362       .  A
C2401      N2402   1.354       .  A
C2401      N2406   1.362       .  A
C2401      C2716   1.476       .  S
N2402      C2403   1.362       .  A
C2403      N2404   1.354       .  A
C2403      C2992   1.480       .  S
N2404      C2405   1.363       .  A
C2405      N2406   1.352       .  A
C2405      C2578   1.478       .  S
C2407      N2408   1.356       .  A
C2407      N2412   1.361       .  A
C2407      C2978   1.479       .  S
N2408      C2409   1.363       .  A
C2409      N2410   1.353       .  A
C2409      C2509   1.480       .  S
N2410      C2411   1.361       .  A
C2411      N2412   1.352       .  A
C2411      C2571   1.475       .  S
C2413      N2414   1.358       .  A
C2413      N2418   1.365       .  A
C2413      C2771   1.489       .  S
N2414      C2415   1.368       .  A
C2415      N2416   1.355       .  A
C2415      C2647   1.486       .  S
N2416      C2417   1.364       .  A
C2417      N2418   1.356       .  A
C2417      C2909   1.487       .  S
C2419      N2420   1.368       .  A
C2419      N2424   1.355       .  A
C2419      C2778   1.486       .  S
N2420      C2421   1.358       .  A
C2421      N2422   1.365       .  A
C2421      C2640   1.489       .  S
N2422      C2423   1.356       .  A
C2423      N2424   1.364       .  A
C2423      C2847   1.487       .  S
C2425      N2426   1.361       .  A
C2425      N2430   1.352       .  A
C2425      C2502   1.475       .  S
N2426      C2427   1.353       .  A
C2427      N2428   1.363       .  A
C2427      C2564   1.480       .  S
N2428      C2429   1.356       .  A
C2429      N2430   1.361       .  A
C2429      C2709   1.479       .  S
C2431      N2432   1.365       .  A
C2431      N2436   1.355       .  A
C2431      C2923   1.484       .  S
N2432      C2433   1.357       .  A
C2433      N2434   1.367       .  A
C2433      C2785   1.487       .  S
N2434      C2435   1.358       .  A
C2435      N2436   1.362       .  A
C2435      C2840   1.489       .  S
C2437      N2438   1.367       .  A
C2437      N2442   1.357       .  A
C2437      C2633   1.487       .  S
N2438      C2439   1.358       .  A
C2439      N2440   1.362       .  A
C2439      C2916   1.489       .  S
N2440      C2441   1.355       .  A
C2441      N2442   1.365       .  A
C2441      C2854   1.484       .  S
O2443     Mg2445   2.102   1_455  S
O2443     Mg2451   2.131       .  S
O2443      C2478   1.240   1_455  S
C2444      O2457   1.242       .  S
C2444      O2481   1.276       .  A
C2444      H2483   1.081       .  S
Mg2445     O2489   2.323       .  S
Mg2445     O3685   2.272       .  S
Mg2445     O3656   2.303   1_655  S
O2446     Mg2488   2.131       .  S
O2446     Mg2471   2.111       .  S
O2446      C2467   1.241       .  S
O2447      C3078   1.274       .  A
C2448      O2450   1.268       .  A
C2448      O2462   1.278       .  A
C2448      N2505   1.446       .  S
O2449      C2477   1.275       .  A
O2450     Mg2482   2.274       .  S
Mg2451     O2465   2.278   1_455  S
Mg2451     O2453   2.286   1_455  S
C2452      C2851   1.475       .  S
C2452      O2490   1.274       .  A
C2452      O3658   1.274       .  A
O2453      C3060   1.270       .  A
H2454      C2467   1.081       .  S
C2455      O2469   1.242       .  S
C2455      O2470   1.275       .  A
C2455      H2480   1.081       .  S
O2456     Mg3645   2.303   1_455  S
O2457     Mg3071   2.135   1_554  S
O2458      C3652   1.274       .  A
O2458     Mg2488   2.306       .  S
C2459      O2472   1.271       .  A
C2459      O2464   1.280       .  A
C2459      N2491   1.448       .  S
C2460      C2782   1.477       .  S
C2460      O3053   1.270       .  A
C2460      O2487   1.275   1_655  A
Mg2461     O2468   2.107       .  S
Mg2461     O3669   2.130       .  S
Mg2461     O2462   2.314       .  S
Mg2461     O3063   2.310   1_554  S
Mg2461     O3090   2.272       .  S
O2463      C3667   1.275       .  A
O2463     Mg3061   2.310       .  S
O2464     Mg2471   2.319       .  S
O2465      C2484   1.269       .  A
O2466     Mg2482   2.272       .  S
C2467      O3663   1.275       .  A
O2468     Mg2482   2.133       .  S
O2468      C2479   1.240       .  S
O2469     Mg3661   2.130   1_545  S
O2469     Mg3088   2.127       .  S
O2470     Mg3682   2.307       .  S
Mg2471     O3057   2.135       .  S
O2472     Mg2488   2.290       .  S
H2473      C2478   1.081       .  S
O2474     Mg3682   2.129       .  S
O2474      C2477   1.241       .  S
H2475      C2477   1.081       .  S
H2476      C2479   1.081       .  S
C2478      O3047   1.274       .  A
O2481     Mg3088   2.312       .  S
Mg2482     O3674   2.129       .  S
Mg2482     O3670   2.307       .  S
C2484      O2489   1.281       .  A
C2484      N2498   1.445       .  S
O2485      C2486   1.275   1_655  A
O2485     Mg3645   2.272       .  S
C2486      C2644   1.475   1_455  S
Mg2488     O3069   2.127       .  S
Mg2488     O3081   2.312       .  S
O2490     Mg3061   2.272       .  S
N2491      C2495   1.370       .  A
N2491      C2492   1.357       .  A
C2492      C2760   1.463       .  S
C2492      C2493   1.375       .  A
C2493      H2496   1.083       .  S
C2493      C2494   1.364       .  A
C2494      H2497   1.083       .  S
C2494      C2495   1.386       .  A
C2495      C2995   1.478       .  S
N2498      C2502   1.367       .  A
N2498      C2499   1.353       .  A
C2499      C2586   1.458   1_655  S
C2499      C2500   1.376       .  A
C2500      H2503   1.082       .  S
C2500      C2501   1.365       .  A
C2501      H2504   1.083       .  S
C2501      C2502   1.387       .  A
N2505      C2509   1.368       .  A
N2505      C2506   1.357       .  A
C2506      C3997   1.468       .  S
C2506      C2507   1.377       .  A
C2507      H2510   1.082       .  S
C2507      C2508   1.368       .  A
C2508      H2511   1.083       .  S
C2508      C2509   1.386       .  A
O2512     Mg2514   2.111       .  S
O2512      C2547   1.241       .  S
C2513      O2526   1.242       .  S
C2513      O2550   1.275       .  A
C2513      H2552   1.081       .  S
Mg2514     O2543   2.135       .  S
Mg2514     O2558   2.319       .  S
Mg2514     O2554   2.272       .  S
Mg2514     O2525   2.303       .  S
O2515     Mg2557   2.133       .  S
O2515      C2536   1.240       .  S
O2516      C2547   1.275       .  A
C2517      O2519   1.269       .  A
C2517      O2531   1.281       .  A
C2517      N2567   1.445       .  S
O2518      C2546   1.276       .  A
O2518     Mg2520   2.312       .  S
O2519     Mg2551   2.278       .  S
Mg2520     O2526   2.127       .  S
Mg2520     O2534   2.290       .  S
Mg2520     O2522   2.306       .  S
C2521      C2775   1.475       .  S
C2521      O2559   1.275       .  A
C2521      O2527   1.269       .  A
O2522      C2529   1.274       .  A
H2523      C2536   1.081       .  S
C2524      O2538   1.241       .  S
C2524      O2539   1.275       .  A
C2524      H2549   1.081       .  S
O2525      C2548   1.274       .  A
O2526     Mg2540   2.130       .  S
O2527     Mg2557   2.273       .  S
C2528      O2541   1.268       .  A
C2528      O2533   1.278       .  A
C2528      N2560   1.446       .  S
C2529      C2920   1.476       .  S
C2529      O2556   1.274       .  A
Mg2530     O2537   2.102       .  S
Mg2530     O2538   2.138       .  S
Mg2530     O2531   2.323       .  S
Mg2530     O2532   2.303       .  S
Mg2530     O2559   2.272       .  S
O2532      C2536   1.274       .  A
O2533     Mg2540   2.314       .  S
O2534      C2553   1.271       .  A
O2535      C2555   1.270       .  A
O2535     Mg2551   2.286       .  S
O2537     Mg2551   2.131       .  S
O2537      C2548   1.240       .  S
O2538     Mg2557   2.129       .  S
O2539     Mg2551   2.307       .  S
Mg2540     O2556   2.272       .  S
H2542      C2547   1.081       .  S
O2543     Mg2551   2.133       .  S
H2544      C2546   1.081       .  S
H2545      C2548   1.081       .  S
C2553      N2574   1.448       .  S
O2554      C2555   1.275       .  A
C2555      C2630   1.477       .  S
N2560      C2564   1.368       .  A
N2560      C2561   1.357       .  A
C2561      C2900   1.468       .  S
C2561      C2562   1.377       .  A
C2562      H2565   1.082       .  S
C2562      C2563   1.368       .  A
C2563      H2566   1.083       .  S
C2563      C2564   1.386       .  A
N2567      C2571   1.367       .  A
N2567      C2568   1.353       .  A
C2568      C2735   1.458       .  S
C2568      C2569   1.375       .  A
C2569      H2572   1.082       .  S
C2569      C2570   1.365       .  A
C2570      H2573   1.083       .  S
C2570      C2571   1.387       .  A
N2574      C2578   1.370       .  A
N2574      C2575   1.357       .  A
C2575      C2597   1.463       .  S
C2575      C2576   1.375       .  A
C2576      H2579   1.083       .  S
C2576      C2577   1.364       .  A
C2577      H2580   1.083       .  S
C2577      C2578   1.386       .  A
O2581     Mg2583   2.151   1_565  S
O2581     Mg2589   2.119   1_565  S
O2581      C3816   1.242       .  S
C2582      O3795   1.240       .  S
C2582      H2621   1.081   1_565  S
Mg2583     O2612   2.080       .  S
Mg2583     O2627   2.333       .  S
Mg2583     O2623   2.284       .  S
Mg2583     O2594   2.339       .  S
O2584     Mg2609   2.144       .  S
O2584      C2605   1.242       .  S
O2585      C2616   1.280       .  A
O2585     Mg2609   2.344       .  S
C2586      O2600   1.275       .  A
O2587      C2615   1.275       .  A
O2587     Mg2589   2.322       .  S
O2588     Mg2620   2.201       .  S
Mg2589     O3795   2.141   1_545  S
Mg2589     O2603   2.207       .  S
Mg2589     O3791   2.346   1_545  S
C2590      O2628   1.266       .  A
C2590      O2596   1.270       .  A
C2590      N2643   1.446       .  S
O2591      C2598   1.269       .  A
O2591     Mg3789   2.346       .  S
H2592      C2605   1.082       .  S
C2593      O2607   1.241   1_655  S
C2593      H2618   1.081       .  S
O2594      C2617   1.279       .  A
O2595     Mg3789   2.141       .  S
O2595     Mg2609   2.082       .  S
O2595      C3782   1.240       .  S
O2596     Mg2626   2.354       .  S
C2597      O2610   1.263       .  A
C2598      O2625   1.265       .  A
C2598      N2629   1.443       .  S
Mg2599     O2606   2.149       .  S
Mg2599     O3801   2.338   1_545  S
O2601      C2605   1.279       .  A
O2601     Mg3799   2.338       .  S
O2602     Mg2609   2.335       .  S
O2603      C2622   1.263       .  A
O2604      C2624   1.270       .  A
O2604     Mg2620   2.351       .  S
O2606     Mg2620   2.120       .  S
O2606      C2617   1.242       .  S
O2607     Mg3826   2.134   1_445  S
O2608     Mg2620   2.322       .  S
Mg2609     O2625   2.278       .  S
O2610     Mg2626   2.207       .  S
H2611      C2616   1.082       .  S
O2612     Mg2620   2.134       .  S
O2612      C2615   1.240       .  S
H2613      C2615   1.081       .  S
H2614      C2617   1.082       .  S
C2616      O3781   1.242       .  S
O2619     Mg3826   2.325       .  S
C2622      C2982   1.460       .  S
C2622      O2627   1.276       .  A
O2623      C2624   1.266       .  A
C2624      N2636   1.444       .  S
Mg2626     O3807   2.134   1_655  S
Mg2626     O3819   2.325       .  S
N2629      C2633   1.370       .  A
N2629      C2630   1.359       .  A
C2630      C2631   1.378       .  A
C2631      H2634   1.083       .  S
C2631      C2632   1.370       .  A
C2632      H2635   1.082       .  S
C2632      C2633   1.386       .  A
N2636      C2640   1.371       .  A
N2636      C2637   1.360       .  A
C2637      C2943   1.476       .  S
C2637      C2638   1.377       .  A
C2638      H2641   1.083       .  S
C2638      C2639   1.368       .  A
C2639      H2642   1.082       .  S
C2639      C2640   1.387       .  A
N2643      C2647   1.372       .  A
N2643      C2644   1.359       .  A
C2644      C2645   1.378   1_655  A
C2645      H2648   1.083       .  S
C2645      C2646   1.368   1_455  A
C2646      H2649   1.083       .  S
C2646      C2647   1.386       .  A
O2650     Mg2652   2.106   1_556  S
O2650     Mg3258   2.129       .  S
O2650      C2685   1.241   1_556  S
C2651      O2664   1.242       .  S
C2651      O2688   1.276       .  A
C2651      H2690   1.081       .  S
Mg2652     O2681   2.136       .  S
Mg2652     O2696   2.319   1_554  S
Mg2652     O2692   2.271       .  S
Mg2652     O2663   2.305       .  S
O2653     Mg2695   2.130       .  S
O2653     Mg3278   2.111       .  S
O2653      C2674   1.241   1_556  S
O2654      C2685   1.275   1_556  A
O2654     Mg3278   2.308       .  S
C2655      O2657   1.268       .  A
C2655      O2669   1.276       .  A
C2655      N2705   1.444       .  S
O2656      C2684   1.275       .  A
O2656     Mg2658   2.310       .  S
O2657     Mg2689   2.271       .  S
Mg2658     O3250   2.129       .  S
Mg2658     O2664   2.131       .  S
Mg2658     O2672   2.294       .  S
Mg2658     O2660   2.311       .  S
C2659      C2844   1.472       .  S
C2659      O2697   1.272       .  A
C2659      O2665   1.273       .  A
O2660      C2667   1.274       .  A
H2661      C2674   1.081       .  S
C2662      O2676   1.241       .  S
C2662      O2677   1.275       .  A
C2662      H2687   1.081   1_554  S
O2663      C2686   1.274       .  A
O2664     Mg2678   2.128       .  S
O2665     Mg2695   2.303   1_554  S
C2666      O2679   1.271       .  A
C2666      O2671   1.276       .  A
C2666      N2698   1.448       .  S
C2667      C2913   1.475       .  S
C2667      O2694   1.273       .  A
Mg2668     O2675   2.107       .  S
Mg2668     O2676   2.130       .  S
Mg2668     O2669   2.306       .  S
Mg2668     O2670   2.309       .  S
Mg2668     O2697   2.264       .  S
O2670      C2674   1.275       .  A
O2671     Mg2678   2.308       .  S
O2672      C2691   1.272       .  A
O2673      C2693   1.269       .  A
O2673     Mg2689   2.278       .  S
O2675     Mg2689   2.131       .  S
O2675      C2686   1.240       .  S
O2676     Mg2695   2.124   1_554  S
O2677     Mg2689   2.308       .  S
Mg2678     O3253   2.111       .  S
Mg2678     O3254   2.308       .  S
Mg2678     O2694   2.267       .  S
O2679     Mg3295   2.285       .  S
H2680      C2685   1.081       .  S
O2681     Mg2689   2.129       .  S
O2681      C3284   1.242   1_554  S
H2682      C2684   1.081       .  S
H2683      C2686   1.081       .  S
C2684      O3281   1.242       .  S
O2688     Mg3295   2.311       .  S
C2691      O3296   1.279       .  A
C2691      N2712   1.448       .  S
O2692      C2693   1.274       .  A
C2693      C2768   1.476       .  S
Mg2695     O3279   2.285       .  S
Mg2695     O3288   2.311       .  S
O2696      C3291   1.279       .  A
N2698      C2702   1.369       .  A
N2698      C2699   1.360       .  A
C2699      C2874   1.470       .  S
C2699      C2700   1.377       .  A
C2700      H2703   1.083       .  S
C2700      C2701   1.366       .  A
C2701      H2704   1.083       .  S
C2701      C2702   1.386       .  A
C2702      C2997   1.480       .  S
N2705      C2709   1.366       .  A
N2705      C2706   1.357       .  A
C2706      C2805   1.467       .  S
C2706      C2707   1.377       .  A
C2707      H2710   1.083       .  S
C2707      C2708   1.367       .  A
C2708      H2711   1.083       .  S
C2708      C2709   1.387       .  A
N2712      C2716   1.369       .  A
N2712      C2713   1.357       .  A
C2713      C2724   1.460       .  S
C2713      C2714   1.375       .  A
C2714      H2717   1.083       .  S
C2714      C2715   1.363       .  A
C2715      H2718   1.083       .  S
C2715      C2716   1.387       .  A
O2719     Mg2721   2.144       .  S
O2719     Mg2727   2.117       .  S
O2719      C2754   1.242       .  S
C2720      O2733   1.241       .  S
C2720      O2757   1.276       .  A
C2720      H2759   1.081       .  S
Mg2721     O3350   2.082       .  S
Mg2721     O3365   2.336       .  S
O2722     Mg2764   2.120       .  S
O2722     Mg2747   2.149       .  S
O2723      C2754   1.279       .  A
O2723     Mg2747   2.338       .  S
C2724      O2726   1.263       .  A
C2724      O3338   1.276       .  A
O2725      C3353   1.276   1_554  A
O2725     Mg2727   2.325       .  S
O2726     Mg2758   2.207       .  S
Mg2727     O2733   2.135       .  S
Mg2727     O2741   2.207       .  S
Mg2727     O2729   2.353       .  S
C2728      O2766   1.266       .  A
C2728      O2734   1.270       .  A
C2728      N2767   1.444       .  S
O2729      C2736   1.270       .  A
H2730      C2743   1.082       .  S
C2731      O3346   1.275   1_554  A
C2731      H2756   1.081       .  S
O2732      C2755   1.280       .  A
O2733     Mg2747   2.080       .  S
C2735      O2748   1.263       .  A
C2735      O2740   1.275       .  A
C2736      O2763   1.266       .  A
C2736      N2774   1.446       .  S
Mg2737     O2744   2.151       .  S
Mg2737     O2745   2.080       .  S
Mg2737     O2738   2.333       .  S
Mg2737     O2739   2.339       .  S
Mg2737     O2766   2.284       .  S
O2738      C3324   1.276   1_554  A
O2739      C2743   1.279       .  A
O2740     Mg2747   2.325       .  S
O2741      C3360   1.263       .  A
O2742      C2762   1.269       .  A
O2742     Mg2758   2.346       .  S
O2744     Mg3358   2.119   1_554  S
O2744      C2755   1.242       .  S
O2746      C3331   1.275       .  A
Mg2747     O2763   2.285       .  S
O2748     Mg2764   2.201       .  S
H2749      C2754   1.082       .  S
O2750     Mg3321   2.082       .  S
O2750      C2753   1.240       .  S
H2751      C2753   1.081       .  S
H2752      C2755   1.082       .  S
C2753      O3325   1.276       .  A
O2757     Mg2764   2.322       .  S
Mg2758     O3344   2.119       .  S
C2760      O3341   1.263       .  A
C2760      O2765   1.276       .  A
O2761      C2762   1.265       .  A
C2762      N2781   1.443       .  S
O2765     Mg3321   2.335       .  S
N2767      C2771   1.371       .  A
N2767      C2768   1.360       .  A
C2768      C2769   1.377       .  A
C2769      H2772   1.083       .  S
C2769      C2770   1.368       .  A
C2770      H2773   1.082       .  S
C2770      C2771   1.387       .  A
N2774      C2778   1.372       .  A
N2774      C2775   1.359       .  A
C2775      C2776   1.378       .  A
C2776      H2779   1.083       .  S
C2776      C2777   1.368       .  A
C2777      H2780   1.083       .  S
C2777      C2778   1.386       .  A
N2781      C2785   1.370       .  A
N2781      C2782   1.359       .  A
C2782      C2783   1.378       .  A
C2783      H2786   1.083       .  S
C2783      C2784   1.370       .  A
C2784      H2787   1.082       .  S
C2784      C2785   1.386       .  A
O2788     Mg3390   2.105       .  S
O2788     Mg2796   2.129       .  S
O2788      C2823   1.241   1_556  S
C2789      O2802   1.242       .  S
C2789      O2826   1.275       .  A
C2789      H2828   1.081   1_554  S
Mg2790     O3388   2.105       .  S
Mg2790     O2819   2.132       .  S
Mg2790     O2834   2.303       .  S
Mg2790     O4030   2.263       .  S
Mg2790     O4601   2.306   1_545  S
O2791     Mg2833   2.128       .  S
O2791     Mg2816   2.097       .  S
O2791      C2812   1.241       .  S
O2792      C2823   1.275       .  A
O2792     Mg2816   2.310       .  S
C2793      O2795   1.270       .  A
C2793      O3407   1.276       .  A
C2793      N2850   1.447       .  S
O2794      C2822   1.275       .  A
O2794     Mg3396   2.308       .  S
O2795     Mg4027   2.281       .  S
Mg2796     O2802   2.130   1_556  S
Mg2796     O3394   2.308       .  S
Mg2796     O3410   2.279       .  S
Mg2796     O2798   2.280   1_556  S
C2797      C3706   1.468   1_545  S
C2797      O4035   1.272   1_545  A
C2797      O2803   1.270       .  A
O2798      C2805   1.270       .  A
H2799      C2812   1.081       .  S
C2800      O3414   1.242       .  S
C2800      O2815   1.275       .  A
C2800      H2825   1.081       .  S
O2801      C2824   1.274       .  A
O2801     Mg4590   2.306       .  S
O2802     Mg2816   2.131       .  S
O2803     Mg2833   2.284       .  S
C2804      O2817   1.269       .  A
C2804      O2809   1.278       .  A
C2804      N2843   1.448       .  S
C2805      O2832   1.272       .  A
Mg2806     O2813   2.103   1_554  S
Mg2806     O4014   2.130       .  S
Mg2806     O2807   2.307   1_554  S
Mg2806     O2808   2.308       .  S
Mg2806     O2835   2.255       .  S
O2807      C3393   1.276       .  A
O2808      C4012   1.275       .  A
O2809     Mg2816   2.318       .  S
O2810      C2829   1.269       .  A
O2810     Mg3396   2.279       .  S
O2811      C2831   1.272       .  A
O2811     Mg4027   2.294       .  S
C2812      O4008   1.275       .  A
O2813     Mg4627   2.127       .  S
O2813      C2824   1.240       .  S
O2814     Mg4006   2.130   1_545  S
O2814     Mg2833   2.128       .  S
O2814      C3400   1.242   1_554  S
O2815     Mg2827   2.310       .  S
Mg2816     O2832   2.258       .  S
O2817     Mg2833   2.283       .  S
H2818      C2823   1.081       .  S
O2819     Mg2827   2.125       .  S
O2819      C2822   1.242       .  S
H2820      C2822   1.081       .  S
H2821      C2824   1.081   1_554  S
O2826     Mg2833   2.310       .  S
Mg2827     O4613   2.127       .  S
Mg2827     O3995   2.280   1_545  S
Mg2827     O4011   2.294   1_545  S
C2829      O2834   1.276       .  A
C2829      N2836   1.444       .  S
O2830      C2831   1.272       .  A
O2830     Mg3990   2.263       .  S
C2831      C2989   1.470       .  S
O2835      C3997   1.272       .  A
N2836      C2840   1.370       .  A
N2836      C2837   1.361       .  A
C2837      C2935   1.475       .  S
C2837      C2838   1.376       .  A
C2838      H2841   1.083       .  S
C2838      C2839   1.369       .  A
C2839      H2842   1.082       .  S
C2839      C2840   1.388       .  A
N2843      C2847   1.372       .  A
N2843      C2844   1.361       .  A
C2844      C2845   1.376       .  A
C2845      H2848   1.083       .  S
C2845      C2846   1.367       .  A
C2846      H2849   1.083       .  S
C2846      C2847   1.387       .  A
N2850      C2854   1.370       .  A
N2850      C2851   1.361       .  A
C2851      C2852   1.377       .  A
C2852      H2855   1.083       .  S
C2852      C2853   1.369       .  A
C2853      H2856   1.083       .  S
C2853      C2854   1.386       .  A
O2857     Mg2859   2.103       .  S
O2857     Mg2865   2.127       .  S
O2857      C2892   1.240       .  S
C2858      O2871   1.242       .  S
C2858      O2895   1.275       .  A
C2858      H2897   1.081       .  S
Mg2859     O2888   2.130       .  S
Mg2859     O2903   2.307       .  S
Mg2859     O2899   2.255       .  S
Mg2859     O2870   2.308       .  S
O2860     Mg2902   2.129       .  S
O2860     Mg2885   2.105       .  S
O2860      C2881   1.241       .  S
O2861      C2892   1.274       .  A
O2861     Mg2885   2.306       .  S
C2862      O2864   1.269       .  A
C2862      O2876   1.278       .  A
C2862      N2905   1.448       .  S
O2863      C2891   1.275       .  A
O2863     Mg2865   2.310       .  S
O2864     Mg2896   2.283       .  S
Mg2865     O2871   2.125       .  S
Mg2865     O2879   2.280       .  S
Mg2865     O2867   2.293       .  S
C2866      C2975   1.467       .  S
C2866      O2904   1.272       .  A
C2866      O2872   1.270       .  A
O2867      C2874   1.272       .  A
H2868      C2881   1.081       .  S
C2869      O2883   1.242       .  S
C2869      O2884   1.275       .  A
C2869      H2894   1.081       .  S
O2870      C2893   1.275       .  A
O2871     Mg2885   2.132       .  S
O2872     Mg2902   2.280       .  S
C2873      O2886   1.269       .  A
C2873      O2878   1.276       .  A
C2873      N2912   1.444       .  S
C2874      O2901   1.272       .  A
Mg2875     O2882   2.097       .  S
Mg2875     O2883   2.131       .  S
Mg2875     O2876   2.318       .  S
Mg2875     O2877   2.310       .  S
Mg2875     O2904   2.258       .  S
O2877      C2881   1.275       .  A
O2878     Mg2885   2.303       .  S
O2879      C2898   1.270       .  A
O2880      C2900   1.270       .  A
O2880     Mg2896   2.284       .  S
O2882     Mg2896   2.128       .  S
O2882      C2893   1.241       .  S
O2883     Mg2902   2.130       .  S
O2884     Mg2896   2.310       .  S
Mg2885     O2901   2.263       .  S
O2886     Mg2902   2.279       .  S
H2887      C2892   1.081       .  S
O2888     Mg2896   2.128       .  S
O2888      C2891   1.242       .  S
H2889      C2891   1.081       .  S
H2890      C2893   1.081       .  S
O2895     Mg2902   2.308       .  S
C2898      O2903   1.276       .  A
C2898      N2919   1.447       .  S
O2899      C2900   1.272       .  A
N2905      C2909   1.372       .  A
N2905      C2906   1.361       .  A
C2906      C2969   1.472       .  S
C2906      C2907   1.376       .  A
C2907      H2910   1.083       .  S
C2907      C2908   1.367       .  A
C2908      H2911   1.083       .  S
C2908      C2909   1.387       .  A
N2912      C2916   1.370       .  A
N2912      C2913   1.361       .  A
C2913      C2914   1.376       .  A
C2914      H2917   1.083       .  S
C2914      C2915   1.369       .  A
C2915      H2918   1.082       .  S
C2915      C2916   1.388       .  A
N2919      C2923   1.370       .  A
N2919      C2920   1.361       .  A
C2920      C2921   1.377       .  A
C2921      H2924   1.083       .  S
C2921      C2922   1.369       .  A
C2922      H2925   1.083       .  S
C2922      C2923   1.386       .  A
O2926     Mg4128   2.107       .  S
O2926     Mg2934   2.131       .  S
O2926      C2961   1.240   1_565  S
C2927      O2940   1.242       .  S
C2927      O2964   1.275       .  A
C2927      H2966   1.081   1_545  S
Mg2928     O4126   2.107       .  S
Mg2928     O2957   2.130       .  S
Mg2928     O2972   2.306       .  S
Mg2928     O2968   2.264       .  S
Mg2928     O4139   2.309       .  S
O2929     Mg2971   2.129       .  S
O2929     Mg2954   2.106       .  S
O2929      C2950   1.241       .  S
O2930      C2961   1.274       .  A
O2930     Mg2954   2.305       .  S
C2931      O2933   1.271       .  A
C2931      O4145   1.276       .  A
C2931      N2988   1.448       .  S
O2932      C2960   1.275       .  A
O2932     Mg4134   2.308       .  S
O2933     Mg2965   2.285       .  S
Mg2934     O2940   2.129   1_565  S
Mg2934     O4132   2.308       .  S
Mg2934     O4148   2.271       .  S
Mg2934     O2936   2.278   1_565  S
C2935      O2973   1.273       .  A
C2935      O2941   1.274       .  A
O2936      C2943   1.269       .  A
H2937      C2950   1.081       .  S
C2938      O4152   1.242       .  S
C2938      O2953   1.276       .  A
C2938      H2963   1.081       .  S
O2939      C2962   1.275   1_565  A
O2939     Mg4128   2.309       .  S
O2940     Mg2954   2.136       .  S
O2941     Mg2971   2.311       .  S
C2942      O2955   1.272       .  A
C2942      O2947   1.279       .  A
C2942      N2981   1.448       .  S
C2943      O2970   1.274       .  A
Mg2944     O2951   2.111   1_545  S
Mg2944     O2952   2.128       .  S
Mg2944     O2945   2.308   1_545  S
Mg2944     O2946   2.308       .  S
Mg2944     O2973   2.267       .  S
O2945      C4131   1.276       .  A
O2946      C2950   1.275       .  A
O2947     Mg2954   2.319       .  S
O2948      C2967   1.268       .  A
O2948     Mg4134   2.271       .  S
O2949      C2969   1.273       .  A
O2949     Mg2965   2.303       .  S
O2951     Mg4165   2.130       .  S
O2951      C2962   1.241   1_565  S
O2952     Mg2971   2.131       .  S
O2952      C4138   1.242   1_545  S
O2953     Mg2965   2.311       .  S
Mg2954     O2970   2.271       .  S
O2955     Mg2971   2.294       .  S
H2956      C2961   1.081       .  S
O2957     Mg2965   2.124       .  S
O2957      C2960   1.241       .  S
H2958      C2960   1.081       .  S
H2959      C2962   1.081       .  S
O2964     Mg2971   2.310       .  S
Mg2965     O4151   2.130       .  S
C2967      O2972   1.276       .  A
C2967      N2974   1.444       .  S
O2968      C2969   1.272       .  A
N2974      C2978   1.366       .  A
N2974      C2975   1.357       .  A
C2975      C2976   1.377       .  A
C2976      H2979   1.083       .  S
C2976      C2977   1.367       .  A
C2977      H2980   1.083       .  S
C2977      C2978   1.387       .  A
N2981      C2985   1.369       .  A
N2981      C2982   1.357       .  A
C2982      C2983   1.375       .  A
C2983      H2986   1.083       .  S
C2983      C2984   1.363       .  A
C2984      H2987   1.083       .  S
C2984      C2985   1.387       .  A
C2985      C2999   1.476       .  S
N2988      C2992   1.369       .  A
N2988      C2989   1.360       .  A
C2989      C2990   1.377       .  A
C2990      H2993   1.083       .  S
C2990      C2991   1.366       .  A
C2991      H2994   1.083       .  S
C2991      C2992   1.386       .  A
C2995      N2996   1.363       .  A
C2995      N3000   1.352       .  A
N2996      C2997   1.354       .  A
C2997      N2998   1.362       .  A
N2998      C2999   1.354       .  A
C2999      N3000   1.362       .  A
C3001      N3002   1.354       .  A
C3001      N3006   1.362       .  A
C3001      C3316   1.476       .  S
N3002      C3003   1.362       .  A
C3003      N3004   1.354       .  A
C3003      C3592   1.480       .  S
N3004      C3005   1.363       .  A
C3005      N3006   1.352       .  A
C3005      C3178   1.478       .  S
C3007      N3008   1.356       .  A
C3007      N3012   1.361       .  A
C3007      C3578   1.479       .  S
N3008      C3009   1.363       .  A
C3009      N3010   1.353       .  A
C3009      C3109   1.480       .  S
N3010      C3011   1.361       .  A
C3011      N3012   1.352       .  A
C3011      C3171   1.475       .  S
C3013      N3014   1.358       .  A
C3013      N3018   1.365       .  A
C3013      C3371   1.489       .  S
N3014      C3015   1.368       .  A
C3015      N3016   1.355       .  A
C3015      C3247   1.486       .  S
N3016      C3017   1.364       .  A
C3017      N3018   1.356       .  A
C3017      C3509   1.487       .  S
C3019      N3020   1.368       .  A
C3019      N3024   1.355       .  A
C3019      C3378   1.486       .  S
N3020      C3021   1.358       .  A
C3021      N3022   1.365       .  A
C3021      C3240   1.489       .  S
N3022      C3023   1.356       .  A
C3023      N3024   1.364       .  A
C3023      C3447   1.487       .  S
C3025      N3026   1.361       .  A
C3025      N3030   1.352       .  A
C3025      C3102   1.475       .  S
N3026      C3027   1.353       .  A
C3027      N3028   1.363       .  A
C3027      C3164   1.480       .  S
N3028      C3029   1.356       .  A
C3029      N3030   1.361       .  A
C3029      C3309   1.479       .  S
C3031      N3032   1.365       .  A
C3031      N3036   1.355       .  A
C3031      C3523   1.484       .  S
N3032      C3033   1.357       .  A
C3033      N3034   1.367       .  A
C3033      C3385   1.487       .  S
N3034      C3035   1.358       .  A
C3035      N3036   1.362       .  A
C3035      C3440   1.489       .  S
C3037      N3038   1.367       .  A
C3037      N3042   1.357       .  A
C3037      C3233   1.487       .  S
N3038      C3039   1.358       .  A
C3039      N3040   1.362       .  A
C3039      C3516   1.489       .  S
N3040      C3041   1.355       .  A
C3041      N3042   1.365       .  A
C3041      C3454   1.484       .  S
O3043     Mg3045   2.102   1_455  S
O3043     Mg3051   2.131       .  S
O3043      C3078   1.240   1_455  S
C3044      O3057   1.242       .  S
C3044      O3081   1.276       .  A
C3044      H3083   1.081       .  S
Mg3045     O3089   2.323       .  S
Mg3045     O4285   2.272       .  S
Mg3045     O4256   2.303   1_655  S
O3046     Mg3088   2.131       .  S
O3046     Mg3071   2.111   1_554  S
O3046      C3067   1.241   1_554  S
C3048      O3050   1.268       .  A
C3048      O3062   1.278       .  A
C3048      N3105   1.446       .  S
O3049      C3077   1.275       .  A
O3050     Mg3082   2.274       .  S
Mg3051     O3065   2.278   1_455  S
Mg3051     O3053   2.286   1_455  S
C3052      C3451   1.475       .  S
C3052      O3090   1.274   1_556  A
C3052      O4258   1.274       .  A
H3054      C3067   1.081       .  S
C3055      O3069   1.242       .  S
C3055      O3070   1.275       .  A
C3055      H3080   1.081       .  S
O3056     Mg4245   2.303   1_455  S
O3058      C4252   1.274       .  A
O3058     Mg3088   2.306   1_556  S
C3059      O3072   1.271       .  A
C3059      O3064   1.280       .  A
C3059      N3091   1.448       .  S
C3060      C3382   1.477   1_554  S
C3060      O3087   1.275   1_654  A
Mg3061     O3068   2.107       .  S
Mg3061     O4269   2.130       .  S
Mg3061     O3062   2.314       .  S
O3063      C4267   1.275       .  A
O3064     Mg3071   2.319       .  S
O3065      C3084   1.269       .  A
O3066     Mg3082   2.273       .  S
C3067      O4263   1.275       .  A
O3068     Mg3082   2.133       .  S
O3068      C3079   1.240       .  S
O3069     Mg4261   2.130   1_545  S
O3070     Mg4282   2.307       .  S
O3072     Mg3088   2.290   1_556  S
H3073      C3078   1.081       .  S
O3074     Mg4282   2.129       .  S
O3074      C3077   1.241       .  S
H3075      C3077   1.081       .  S
H3076      C3079   1.081       .  S
Mg3082     O4274   2.129       .  S
Mg3082     O4270   2.307       .  S
C3084      O3089   1.281       .  A
C3084      N3098   1.445       .  S
O3085      C3086   1.275   1_655  A
O3085     Mg4245   2.272       .  S
C3086      C3244   1.475   1_455  S
N3091      C3095   1.370       .  A
N3091      C3092   1.357       .  A
C3092      C3360   1.463   1_556  S
C3092      C3093   1.375       .  A
C3093      H3096   1.083       .  S
C3093      C3094   1.364       .  A
C3094      H3097   1.083       .  S
C3094      C3095   1.386       .  A
C3095      C3595   1.478       .  S
N3098      C3102   1.367       .  A
N3098      C3099   1.353       .  A
C3099      C3186   1.458   1_655  S
C3099      C3100   1.376       .  A
C3100      H3103   1.082       .  S
C3100      C3101   1.365       .  A
C3101      H3104   1.083       .  S
C3101      C3102   1.387       .  A
N3105      C3109   1.368       .  A
N3105      C3106   1.357       .  A
C3106      C4597   1.468       .  S
C3106      C3107   1.377       .  A
C3107      H3110   1.082       .  S
C3107      C3108   1.368       .  A
C3108      H3111   1.083       .  S
C3108      C3109   1.386       .  A
O3112     Mg3114   2.111       .  S
O3112      C3147   1.241       .  S
C3113      O3126   1.242       .  S
C3113      O3150   1.275       .  A
C3113      H3152   1.081       .  S
Mg3114     O3143   2.135       .  S
Mg3114     O3158   2.319       .  S
Mg3114     O3154   2.272       .  S
Mg3114     O3125   2.303       .  S
O3115     Mg3157   2.133       .  S
O3115      C3136   1.240       .  S
O3116      C3147   1.275       .  A
C3117      O3119   1.269       .  A
C3117      O3131   1.281       .  A
C3117      N3167   1.445       .  S
O3118      C3146   1.276       .  A
O3118     Mg3120   2.312       .  S
O3119     Mg3151   2.278       .  S
Mg3120     O3126   2.127       .  S
Mg3120     O3134   2.290       .  S
Mg3120     O3122   2.306       .  S
C3121      C3375   1.475       .  S
C3121      O3159   1.275       .  A
C3121      O3127   1.269       .  A
O3122      C3129   1.274       .  A
H3123      C3136   1.081       .  S
C3124      O3138   1.241       .  S
C3124      O3139   1.275       .  A
C3124      H3149   1.081       .  S
O3125      C3148   1.274       .  A
O3126     Mg3140   2.130       .  S
O3127     Mg3157   2.273       .  S
C3128      O3141   1.268       .  A
C3128      O3133   1.278       .  A
C3128      N3160   1.446       .  S
C3129      C3520   1.476       .  S
C3129      O3156   1.274       .  A
Mg3130     O3137   2.102       .  S
Mg3130     O3138   2.138       .  S
Mg3130     O3131   2.323       .  S
Mg3130     O3132   2.303       .  S
Mg3130     O3159   2.272       .  S
O3132      C3136   1.274       .  A
O3133     Mg3140   2.314       .  S
O3134      C3153   1.271       .  A
O3135      C3155   1.270       .  A
O3135     Mg3151   2.286       .  S
O3137     Mg3151   2.131       .  S
O3137      C3148   1.240       .  S
O3138     Mg3157   2.129       .  S
O3139     Mg3151   2.307       .  S
Mg3140     O3156   2.272       .  S
H3142      C3147   1.081       .  S
O3143     Mg3151   2.133       .  S
H3144      C3146   1.081       .  S
H3145      C3148   1.081       .  S
C3153      N3174   1.448       .  S
O3154      C3155   1.275       .  A
C3155      C3230   1.477       .  S
N3160      C3164   1.368       .  A
N3160      C3161   1.357       .  A
C3161      C3500   1.468       .  S
C3161      C3162   1.377       .  A
C3162      H3165   1.082       .  S
C3162      C3163   1.368       .  A
C3163      H3166   1.083       .  S
C3163      C3164   1.386       .  A
N3167      C3171   1.367       .  A
N3167      C3168   1.353       .  A
C3168      C3335   1.458       .  S
C3168      C3169   1.375       .  A
C3169      H3172   1.082       .  S
C3169      C3170   1.365       .  A
C3170      H3173   1.083       .  S
C3170      C3171   1.387       .  A
N3174      C3178   1.370       .  A
N3174      C3175   1.357       .  A
C3175      C3197   1.463       .  S
C3175      C3176   1.375       .  A
C3176      H3179   1.083       .  S
C3176      C3177   1.364       .  A
C3177      H3180   1.083       .  S
C3177      C3178   1.386       .  A
O3181     Mg3183   2.151   1_565  S
O3181     Mg3189   2.119   1_565  S
O3181      C4416   1.242       .  S
C3182      O4395   1.240       .  S
C3182      H3221   1.081   1_565  S
Mg3183     O3212   2.080       .  S
Mg3183     O3227   2.333       .  S
Mg3183     O3223   2.284       .  S
Mg3183     O3194   2.339       .  S
O3184     Mg3209   2.144       .  S
O3184      C3205   1.242       .  S
O3185      C3216   1.280       .  A
O3185     Mg3209   2.344       .  S
C3186      O3200   1.275       .  A
O3187      C3215   1.275       .  A
O3187     Mg3189   2.322       .  S
O3188     Mg3220   2.201       .  S
Mg3189     O4395   2.141   1_545  S
Mg3189     O3203   2.207       .  S
Mg3189     O4391   2.346   1_545  S
C3190      O3228   1.266       .  A
C3190      O3196   1.270       .  A
C3190      N3243   1.446       .  S
O3191      C3198   1.269       .  A
O3191     Mg4389   2.346       .  S
H3192      C3205   1.082       .  S
C3193      O3207   1.241   1_655  S
C3193      H3218   1.081       .  S
O3194      C3217   1.279       .  A
O3195     Mg4389   2.141       .  S
O3195     Mg3209   2.082       .  S
O3195      C4382   1.240       .  S
O3196     Mg3226   2.354       .  S
C3197      O3210   1.263       .  A
C3198      O3225   1.265       .  A
C3198      N3229   1.443       .  S
Mg3199     O3206   2.149       .  S
Mg3199     O4401   2.338   1_545  S
O3201      C3205   1.279       .  A
O3201     Mg4399   2.338       .  S
O3202     Mg3209   2.335       .  S
O3203      C3222   1.263       .  A
O3204      C3224   1.270       .  A
O3204     Mg3220   2.351       .  S
O3206     Mg3220   2.120       .  S
O3206      C3217   1.242       .  S
O3207     Mg4426   2.134   1_445  S
O3208     Mg3220   2.322       .  S
Mg3209     O3225   2.278       .  S
O3210     Mg3226   2.207       .  S
H3211      C3216   1.082       .  S
O3212     Mg3220   2.134       .  S
O3212      C3215   1.240       .  S
H3213      C3215   1.081       .  S
H3214      C3217   1.082       .  S
C3216      O4381   1.242       .  S
O3219     Mg4426   2.325       .  S
C3222      C3582   1.460       .  S
C3222      O3227   1.276       .  A
O3223      C3224   1.266       .  A
C3224      N3236   1.444       .  S
Mg3226     O4407   2.134   1_655  S
Mg3226     O4419   2.325       .  S
N3229      C3233   1.370       .  A
N3229      C3230   1.359       .  A
C3230      C3231   1.378       .  A
C3231      H3234   1.083       .  S
C3231      C3232   1.370       .  A
C3232      H3235   1.082       .  S
C3232      C3233   1.386       .  A
N3236      C3240   1.371       .  A
N3236      C3237   1.360       .  A
C3237      C3543   1.476       .  S
C3237      C3238   1.377       .  A
C3238      H3241   1.083       .  S
C3238      C3239   1.368       .  A
C3239      H3242   1.082       .  S
C3239      C3240   1.387       .  A
N3243      C3247   1.372       .  A
N3243      C3244   1.359       .  A
C3244      C3245   1.378   1_655  A
C3245      H3248   1.083       .  S
C3245      C3246   1.368   1_455  A
C3246      H3249   1.082       .  S
C3246      C3247   1.386       .  A
O3250     Mg3252   2.106       .  S
O3250      C3285   1.241       .  S
C3251      O3264   1.242       .  S
C3251      O3288   1.276       .  A
C3251      H3290   1.081       .  S
Mg3252     O3281   2.136       .  S
Mg3252     O3296   2.319       .  S
Mg3252     O3292   2.271       .  S
Mg3252     O3263   2.305       .  S
O3253     Mg3295   2.129       .  S
O3253      C3274   1.241       .  S
O3254      C3285   1.275       .  A
C3255      O3257   1.268       .  A
C3255      O3269   1.276       .  A
C3255      N3305   1.444       .  S
O3256      C3284   1.275       .  A
O3256     Mg3258   2.310       .  S
O3257     Mg3289   2.271       .  S
Mg3258     O3264   2.131       .  S
Mg3258     O3272   2.294       .  S
Mg3258     O3260   2.311       .  S
C3259      C3444   1.472       .  S
C3259      O3297   1.272       .  A
C3259      O3265   1.273       .  A
O3260      C3267   1.274       .  A
H3261      C3274   1.081       .  S
C3262      O3276   1.241       .  S
C3262      O3277   1.275       .  A
C3262      H3287   1.081       .  S
O3263      C3286   1.274       .  A
O3264     Mg3278   2.128       .  S
O3265     Mg3295   2.303       .  S
C3266      O3279   1.271       .  A
C3266      O3271   1.276       .  A
C3266      N3298   1.448       .  S
C3267      C3513   1.475       .  S
C3267      O3294   1.273       .  A
Mg3268     O3275   2.107       .  S
Mg3268     O3276   2.130       .  S
Mg3268     O3269   2.306       .  S
Mg3268     O3270   2.309       .  S
Mg3268     O3297   2.264       .  S
O3270      C3274   1.275       .  A
O3271     Mg3278   2.308       .  S
O3272      C3291   1.272       .  A
O3273      C3293   1.269       .  A
O3273     Mg3289   2.278       .  S
O3275     Mg3289   2.131       .  S
O3275      C3286   1.240       .  S
O3276     Mg3295   2.124       .  S
O3277     Mg3289   2.308       .  S
Mg3278     O3294   2.267       .  S
H3280      C3285   1.081       .  S
O3281     Mg3289   2.129       .  S
H3282      C3284   1.081       .  S
H3283      C3286   1.081       .  S
C3291      N3312   1.448       .  S
O3292      C3293   1.274       .  A
C3293      C3368   1.476       .  S
N3298      C3302   1.369       .  A
N3298      C3299   1.360       .  A
C3299      C3474   1.470       .  S
C3299      C3300   1.377       .  A
C3300      H3303   1.083       .  S
C3300      C3301   1.366       .  A
C3301      H3304   1.083       .  S
C3301      C3302   1.386       .  A
C3302      C3597   1.480       .  S
N3305      C3309   1.366       .  A
N3305      C3306   1.357       .  A
C3306      C3405   1.467       .  S
C3306      C3307   1.377       .  A
C3307      H3310   1.083       .  S
C3307      C3308   1.367       .  A
C3308      H3311   1.083       .  S
C3308      C3309   1.387       .  A
N3312      C3316   1.369       .  A
N3312      C3313   1.357       .  A
C3313      C3324   1.460       .  S
C3313      C3314   1.375       .  A
C3314      H3317   1.083       .  S
C3314      C3315   1.363       .  A
C3315      H3318   1.083       .  S
C3315      C3316   1.387       .  A
O3319     Mg3321   2.144       .  S
O3319     Mg3327   2.117       .  S
O3319      C3354   1.242       .  S
C3320      O3333   1.241       .  S
C3320      O3357   1.276       .  A
C3320      H3359   1.081       .  S
O3322     Mg3364   2.120       .  S
O3322     Mg3347   2.149       .  S
O3323      C3354   1.279       .  A
O3323     Mg3347   2.338       .  S
C3324      O3326   1.263       .  A
O3325     Mg3327   2.325       .  S
O3326     Mg3358   2.207       .  S
Mg3327     O3333   2.134       .  S
Mg3327     O3341   2.207       .  S
Mg3327     O3329   2.354       .  S
C3328      O3366   1.266       .  A
C3328      O3334   1.270       .  A
C3328      N3367   1.444       .  S
O3329      C3336   1.270       .  A
H3330      C3343   1.082       .  S
C3331      H3356   1.081       .  S
O3332      C3355   1.280       .  A
O3333     Mg3347   2.080       .  S
C3335      O3348   1.263       .  A
C3335      O3340   1.275       .  A
C3336      O3363   1.266       .  A
C3336      N3374   1.446       .  S
Mg3337     O3344   2.151       .  S
Mg3337     O3345   2.080       .  S
Mg3337     O3338   2.333       .  S
Mg3337     O3339   2.339       .  S
Mg3337     O3366   2.284       .  S
O3339      C3343   1.279       .  A
O3340     Mg3347   2.325       .  S
O3342      C3362   1.269       .  A
O3342     Mg3358   2.346       .  S
O3344      C3355   1.242       .  S
Mg3347     O3363   2.284       .  S
O3348     Mg3364   2.201       .  S
H3349      C3354   1.082       .  S
O3350      C3353   1.240   1_554  S
H3351      C3353   1.081       .  S
H3352      C3355   1.082       .  S
O3357     Mg3364   2.322       .  S
C3360      O3365   1.276       .  A
O3361      C3362   1.265       .  A
C3362      N3381   1.443       .  S
N3367      C3371   1.371       .  A
N3367      C3368   1.360       .  A
C3368      C3369   1.377       .  A
C3369      H3372   1.083       .  S
C3369      C3370   1.368       .  A
C3370      H3373   1.082       .  S
C3370      C3371   1.387       .  A
N3374      C3378   1.372       .  A
N3374      C3375   1.359       .  A
C3375      C3376   1.378       .  A
C3376      H3379   1.083       .  S
C3376      C3377   1.368       .  A
C3377      H3380   1.083       .  S
C3377      C3378   1.386       .  A
N3381      C3385   1.370       .  A
N3381      C3382   1.359       .  A
C3382      C3383   1.378   1_556  A
C3383      H3386   1.083       .  S
C3383      C3384   1.370   1_554  A
C3384      H3387   1.082       .  S
C3384      C3385   1.386       .  A
O3388     Mg3396   2.129       .  S
O3388      C3423   1.241       .  S
C3389      O3402   1.242       .  S
C3389      O3426   1.275       .  A
C3389      H3428   1.081       .  S
Mg3390     O3419   2.132       .  S
Mg3390     O3434   2.303       .  S
Mg3390     O4630   2.263       .  S
Mg3390     O4001   2.306   1_545  S
O3391     Mg3433   2.128       .  S
O3391     Mg3416   2.097       .  S
O3391      C3412   1.241       .  S
O3392      C3423   1.275       .  A
O3392     Mg3416   2.310       .  S
C3393      O3395   1.270       .  A
C3393      N3450   1.447       .  S
O3394      C3422   1.275       .  A
O3395     Mg4627   2.281       .  S
Mg3396     O3402   2.130       .  S
Mg3396     O3398   2.280       .  S
C3397      C4306   1.468   1_545  S
C3397      O4635   1.272   1_545  A
C3397      O3403   1.270       .  A
O3398      C3405   1.270       .  A
H3399      C3412   1.081       .  S
C3400      O3415   1.275       .  A
C3400      H3425   1.081       .  S
O3401      C3424   1.274       .  A
O3401     Mg3990   2.306       .  S
O3402     Mg3416   2.131       .  S
O3403     Mg3433   2.284       .  S
C3404      O3417   1.269       .  A
C3404      O3409   1.278       .  A
C3404      N3443   1.448       .  S
C3405      O3432   1.272       .  A
Mg3406     O3413   2.103       .  S
Mg3406     O4614   2.130       .  S
Mg3406     O3407   2.307       .  S
Mg3406     O3408   2.308       .  S
Mg3406     O3435   2.255       .  S
O3408      C4612   1.275       .  A
O3409     Mg3416   2.318       .  S
O3410      C3429   1.269       .  A
O3411      C3431   1.272       .  A
O3411     Mg4627   2.293       .  S
C3412      O4608   1.275       .  A
O3413     Mg4027   2.127       .  S
O3413      C3424   1.240       .  S
O3414     Mg4606   2.130   1_545  S
O3414     Mg3433   2.128       .  S
O3415     Mg3427   2.310       .  S
Mg3416     O3432   2.258       .  S
O3417     Mg3433   2.283       .  S
H3418      C3423   1.081       .  S
O3419     Mg3427   2.125       .  S
O3419      C3422   1.242       .  S
H3420      C3422   1.081       .  S
H3421      C3424   1.081       .  S
O3426     Mg3433   2.310       .  S
Mg3427     O4013   2.127       .  S
Mg3427     O4595   2.281   1_545  S
Mg3427     O4611   2.293   1_545  S
C3429      O3434   1.276       .  A
C3429      N3436   1.444       .  S
O3430      C3431   1.272       .  A
O3430     Mg4590   2.263       .  S
C3431      C3589   1.470       .  S
O3435      C4597   1.272       .  A
N3436      C3440   1.370       .  A
N3436      C3437   1.361       .  A
C3437      C3535   1.475       .  S
C3437      C3438   1.376       .  A
C3438      H3441   1.083       .  S
C3438      C3439   1.369       .  A
C3439      H3442   1.082       .  S
C3439      C3440   1.388       .  A
N3443      C3447   1.372       .  A
N3443      C3444   1.361       .  A
C3444      C3445   1.376       .  A
C3445      H3448   1.083       .  S
C3445      C3446   1.367       .  A
C3446      H3449   1.083       .  S
C3446      C3447   1.387       .  A
N3450      C3454   1.370       .  A
N3450      C3451   1.361       .  A
C3451      C3452   1.377       .  A
C3452      H3455   1.083       .  S
C3452      C3453   1.369       .  A
C3453      H3456   1.083       .  S
C3453      C3454   1.386       .  A
O3457     Mg3459   2.103       .  S
O3457     Mg3465   2.127       .  S
O3457      C3492   1.240       .  S
C3458      O3471   1.242       .  S
C3458      O3495   1.275       .  A
C3458      H3497   1.081       .  S
Mg3459     O3488   2.130       .  S
Mg3459     O3503   2.307       .  S
Mg3459     O3499   2.255       .  S
Mg3459     O3470   2.308       .  S
O3460     Mg3502   2.129       .  S
O3460     Mg3485   2.105       .  S
O3460      C3481   1.241       .  S
O3461      C3492   1.274       .  A
O3461     Mg3485   2.306       .  S
C3462      O3464   1.269       .  A
C3462      O3476   1.278       .  A
C3462      N3505   1.448       .  S
O3463      C3491   1.275       .  A
O3463     Mg3465   2.310       .  S
O3464     Mg3496   2.283       .  S
Mg3465     O3471   2.125       .  S
Mg3465     O3479   2.280       .  S
Mg3465     O3467   2.293       .  S
C3466      C3575   1.467       .  S
C3466      O3504   1.272       .  A
C3466      O3472   1.270       .  A
O3467      C3474   1.272       .  A
H3468      C3481   1.081       .  S
C3469      O3483   1.242       .  S
C3469      O3484   1.275       .  A
C3469      H3494   1.081       .  S
O3470      C3493   1.275       .  A
O3471     Mg3485   2.132       .  S
O3472     Mg3502   2.280       .  S
C3473      O3486   1.269       .  A
C3473      O3478   1.276       .  A
C3473      N3512   1.444       .  S
C3474      O3501   1.272       .  A
Mg3475     O3482   2.097       .  S
Mg3475     O3483   2.131       .  S
Mg3475     O3476   2.318       .  S
Mg3475     O3477   2.310       .  S
Mg3475     O3504   2.258       .  S
O3477      C3481   1.275       .  A
O3478     Mg3485   2.303       .  S
O3479      C3498   1.270       .  A
O3480      C3500   1.270       .  A
O3480     Mg3496   2.284       .  S
O3482     Mg3496   2.128       .  S
O3482      C3493   1.241       .  S
O3483     Mg3502   2.130       .  S
O3484     Mg3496   2.310       .  S
Mg3485     O3501   2.263       .  S
O3486     Mg3502   2.279       .  S
H3487      C3492   1.081       .  S
O3488     Mg3496   2.128       .  S
O3488      C3491   1.242       .  S
H3489      C3491   1.081       .  S
H3490      C3493   1.081       .  S
O3495     Mg3502   2.308       .  S
C3498      O3503   1.276       .  A
C3498      N3519   1.447       .  S
O3499      C3500   1.272       .  A
N3505      C3509   1.372       .  A
N3505      C3506   1.361       .  A
C3506      C3569   1.472       .  S
C3506      C3507   1.376       .  A
C3507      H3510   1.083       .  S
C3507      C3508   1.367       .  A
C3508      H3511   1.083       .  S
C3508      C3509   1.387       .  A
N3512      C3516   1.370       .  A
N3512      C3513   1.361       .  A
C3513      C3514   1.376       .  A
C3514      H3517   1.083       .  S
C3514      C3515   1.369       .  A
C3515      H3518   1.082       .  S
C3515      C3516   1.388       .  A
N3519      C3523   1.370       .  A
N3519      C3520   1.361       .  A
C3520      C3521   1.377       .  A
C3521      H3524   1.083       .  S
C3521      C3522   1.369       .  A
C3522      H3525   1.083       .  S
C3522      C3523   1.386       .  A
O3526     Mg4728   2.107       .  S
O3526     Mg3534   2.131       .  S
O3526      C3561   1.240   1_565  S
C3527      O3540   1.242       .  S
C3527      O3564   1.275       .  A
C3527      H3566   1.081   1_545  S
Mg3528     O4726   2.107       .  S
Mg3528     O3557   2.130       .  S
Mg3528     O3572   2.306       .  S
Mg3528     O3568   2.264       .  S
Mg3528     O4739   2.309       .  S
O3529     Mg3571   2.129       .  S
O3529     Mg3554   2.106       .  S
O3529      C3550   1.241       .  S
O3530      C3561   1.274       .  A
O3530     Mg3554   2.305       .  S
C3531      O3533   1.271       .  A
C3531      O4745   1.276       .  A
C3531      N3588   1.448       .  S
O3532      C3560   1.275       .  A
O3532     Mg4734   2.308       .  S
O3533     Mg3565   2.285       .  S
Mg3534     O3540   2.129   1_565  S
Mg3534     O4732   2.308       .  S
Mg3534     O4748   2.271       .  S
Mg3534     O3536   2.278   1_565  S
C3535      O3573   1.273       .  A
C3535      O3541   1.274       .  A
O3536      C3543   1.269       .  A
H3537      C3550   1.081       .  S
C3538      O4752   1.242       .  S
C3538      O3553   1.276       .  A
C3538      H3563   1.081       .  S
O3539      C3562   1.275   1_565  A
O3539     Mg4728   2.309       .  S
O3540     Mg3554   2.136       .  S
O3541     Mg3571   2.311       .  S
C3542      O3555   1.272       .  A
C3542      O3547   1.279       .  A
C3542      N3581   1.448       .  S
C3543      O3570   1.274       .  A
Mg3544     O3551   2.111   1_545  S
Mg3544     O3552   2.129       .  S
Mg3544     O3545   2.308   1_545  S
Mg3544     O3546   2.308       .  S
Mg3544     O3573   2.267       .  S
O3545      C4731   1.276       .  A
O3546      C3550   1.275       .  A
O3547     Mg3554   2.318       .  S
O3548      C3567   1.268       .  A
O3548     Mg4734   2.271       .  S
O3549      C3569   1.273       .  A
O3549     Mg3565   2.303       .  S
O3551     Mg4765   2.130       .  S
O3551      C3562   1.241   1_565  S
O3552     Mg3571   2.131       .  S
O3552      C4738   1.242   1_545  S
O3553     Mg3565   2.311       .  S
Mg3554     O3570   2.271       .  S
O3555     Mg3571   2.294       .  S
H3556      C3561   1.081       .  S
O3557     Mg3565   2.124       .  S
O3557      C3560   1.241       .  S
H3558      C3560   1.081       .  S
H3559      C3562   1.081       .  S
O3564     Mg3571   2.310       .  S
Mg3565     O4751   2.130       .  S
C3567      O3572   1.276       .  A
C3567      N3574   1.444       .  S
O3568      C3569   1.272       .  A
N3574      C3578   1.366       .  A
N3574      C3575   1.357       .  A
C3575      C3576   1.377       .  A
C3576      H3579   1.083       .  S
C3576      C3577   1.367       .  A
C3577      H3580   1.083       .  S
C3577      C3578   1.387       .  A
N3581      C3585   1.369       .  A
N3581      C3582   1.357       .  A
C3582      C3583   1.375       .  A
C3583      H3586   1.083       .  S
C3583      C3584   1.363       .  A
C3584      H3587   1.083       .  S
C3584      C3585   1.387       .  A
C3585      C3599   1.476       .  S
N3588      C3592   1.369       .  A
N3588      C3589   1.360       .  A
C3589      C3590   1.377       .  A
C3590      H3593   1.083       .  S
C3590      C3591   1.366       .  A
C3591      H3594   1.083       .  S
C3591      C3592   1.386       .  A
C3595      N3596   1.363       .  A
C3595      N3600   1.352       .  A
N3596      C3597   1.354       .  A
C3597      N3598   1.362       .  A
N3598      C3599   1.354       .  A
C3599      N3600   1.362       .  A
C3601      N3602   1.354       .  A
C3601      N3606   1.362       .  A
C3601      C3916   1.476       .  S
N3602      C3603   1.362       .  A
C3603      N3604   1.354       .  A
C3603      C4192   1.480       .  S
N3604      C3605   1.363       .  A
C3605      N3606   1.352       .  A
C3605      C3778   1.478       .  S
C3607      N3608   1.356       .  A
C3607      N3612   1.361       .  A
C3607      C4178   1.479       .  S
N3608      C3609   1.363       .  A
C3609      N3610   1.353       .  A
C3609      C3709   1.480       .  S
N3610      C3611   1.361       .  A
C3611      N3612   1.352       .  A
C3611      C3771   1.475       .  S
C3613      N3614   1.358       .  A
C3613      N3618   1.365       .  A
C3613      C3971   1.489       .  S
N3614      C3615   1.368       .  A
C3615      N3616   1.355       .  A
C3615      C3847   1.486       .  S
N3616      C3617   1.364       .  A
C3617      N3618   1.356       .  A
C3617      C4109   1.487       .  S
C3619      N3620   1.368       .  A
C3619      N3624   1.355       .  A
C3619      C3978   1.486       .  S
N3620      C3621   1.358       .  A
C3621      N3622   1.365       .  A
C3621      C3840   1.489       .  S
N3622      C3623   1.356       .  A
C3623      N3624   1.364       .  A
C3623      C4047   1.487       .  S
C3625      N3626   1.361       .  A
C3625      N3630   1.352       .  A
C3625      C3702   1.475       .  S
N3626      C3627   1.353       .  A
C3627      N3628   1.363       .  A
C3627      C3764   1.480       .  S
N3628      C3629   1.356       .  A
C3629      N3630   1.361       .  A
C3629      C3909   1.479       .  S
C3631      N3632   1.365       .  A
C3631      N3636   1.355       .  A
C3631      C4123   1.484       .  S
N3632      C3633   1.357       .  A
C3633      N3634   1.367       .  A
C3633      C3985   1.487       .  S
N3634      C3635   1.358       .  A
C3635      N3636   1.362       .  A
C3635      C4040   1.489       .  S
C3637      N3638   1.367       .  A
C3637      N3642   1.357       .  A
C3637      C3833   1.487       .  S
N3638      C3639   1.358       .  A
C3639      N3640   1.362       .  A
C3639      C4116   1.489       .  S
N3640      C3641   1.355       .  A
C3641      N3642   1.365       .  A
C3641      C4054   1.484       .  S
O3643     Mg3645   2.102   1_455  S
O3643     Mg3651   2.131       .  S
O3643      C3678   1.240   1_455  S
C3644      O3657   1.242       .  S
C3644      O3681   1.276       .  A
C3644      H3683   1.081       .  S
Mg3645     O3689   2.323       .  S
O3646     Mg3688   2.131       .  S
O3646     Mg3671   2.111       .  S
O3646      C3667   1.241       .  S
O3647      C4278   1.274       .  A
C3648      O3650   1.268       .  A
C3648      O3662   1.278       .  A
C3648      N3705   1.446       .  S
O3649      C3677   1.275       .  A
O3650     Mg3682   2.274   1_565  S
Mg3651     O3665   2.278   1_455  S
Mg3651     O3653   2.286   1_455  S
C3652      C4051   1.475   1_545  S
C3652      O3690   1.274   1_545  A
O3653      C4260   1.270       .  A
H3654      C3667   1.081       .  S
C3655      O3669   1.242       .  S
C3655      O3670   1.275       .  A
C3655      H3680   1.081       .  S
O3657     Mg4271   2.135   1_554  S
O3658     Mg3688   2.306       .  S
C3659      O3672   1.271       .  A
C3659      O3664   1.280       .  A
C3659      N3691   1.448       .  S
C3660      C3982   1.477       .  S
C3660      O4253   1.270       .  A
C3660      O3687   1.275   1_655  A
Mg3661     O3668   2.107   1_565  S
Mg3661     O3662   2.314       .  S
Mg3661     O4263   2.310   1_564  S
Mg3661     O4290   2.272       .  S
O3663     Mg4261   2.310   1_545  S
O3664     Mg3671   2.319       .  S
O3665      C3684   1.269       .  A
O3666     Mg3682   2.272   1_565  S
O3668     Mg3682   2.133       .  S
O3668      C3679   1.240   1_545  S
O3669     Mg4288   2.127       .  S
Mg3671     O4257   2.135       .  S
O3672     Mg3688   2.290       .  S
H3673      C3678   1.081       .  S
O3674      C3677   1.241       .  S
H3675      C3677   1.081       .  S
H3676      C3679   1.081       .  S
C3678      O4247   1.274       .  A
O3681     Mg4288   2.312       .  S
C3684      O3689   1.281       .  A
C3684      N3698   1.445       .  S
O3685      C3686   1.275   1_645  A
C3686      C3844   1.475   1_455  S
Mg3688     O4269   2.127       .  S
Mg3688     O4281   2.312       .  S
O3690     Mg4261   2.272       .  S
N3691      C3695   1.370       .  A
N3691      C3692   1.357       .  A
C3692      C3960   1.463       .  S
C3692      C3693   1.375       .  A
C3693      H3696   1.083       .  S
C3693      C3694   1.364       .  A
C3694      H3697   1.083       .  S
C3694      C3695   1.386       .  A
C3695      C4195   1.478       .  S
N3698      C3702   1.367       .  A
N3698      C3699   1.353       .  A
C3699      C3786   1.458   1_655  S
C3699      C3700   1.376       .  A
C3700      H3703   1.082       .  S
C3700      C3701   1.365       .  A
C3701      H3704   1.083       .  S
C3701      C3702   1.387       .  A
N3705      C3709   1.368       .  A
N3705      C3706   1.357       .  A
C3706      C3707   1.377       .  A
C3707      H3710   1.082   1_565  S
C3707      C3708   1.368       .  A
C3708      H3711   1.083       .  S
C3708      C3709   1.386       .  A
O3712     Mg3714   2.111       .  S
O3712      C3747   1.241       .  S
C3713      O3726   1.242       .  S
C3713      O3750   1.275       .  A
C3713      H3752   1.081       .  S
Mg3714     O3743   2.135       .  S
Mg3714     O3758   2.319       .  S
Mg3714     O3754   2.272       .  S
Mg3714     O3725   2.303       .  S
O3715     Mg3757   2.133       .  S
O3715      C3736   1.240       .  S
O3716      C3747   1.275       .  A
C3717      O3719   1.269       .  A
C3717      O3731   1.281       .  A
C3717      N3767   1.445       .  S
O3718      C3746   1.276       .  A
O3718     Mg3720   2.312       .  S
O3719     Mg3751   2.278       .  S
Mg3720     O3726   2.127       .  S
Mg3720     O3734   2.290       .  S
Mg3720     O3722   2.306       .  S
C3721      C3975   1.475       .  S
C3721      O3759   1.275       .  A
C3721      O3727   1.269       .  A
O3722      C3729   1.274       .  A
H3723      C3736   1.081       .  S
C3724      O3738   1.241       .  S
C3724      O3739   1.275       .  A
C3724      H3749   1.081       .  S
O3725      C3748   1.274       .  A
O3726     Mg3740   2.130       .  S
O3727     Mg3757   2.273       .  S
C3728      O3741   1.268       .  A
C3728      O3733   1.278       .  A
C3728      N3760   1.446       .  S
C3729      C4120   1.476       .  S
C3729      O3756   1.274       .  A
Mg3730     O3737   2.102       .  S
Mg3730     O3738   2.138       .  S
Mg3730     O3731   2.323       .  S
Mg3730     O3732   2.303       .  S
Mg3730     O3759   2.272       .  S
O3732      C3736   1.274       .  A
O3733     Mg3740   2.314       .  S
O3734      C3753   1.271       .  A
O3735      C3755   1.270       .  A
O3735     Mg3751   2.286       .  S
O3737     Mg3751   2.131       .  S
O3737      C3748   1.240       .  S
O3738     Mg3757   2.129       .  S
O3739     Mg3751   2.307       .  S
Mg3740     O3756   2.272       .  S
H3742      C3747   1.081       .  S
O3743     Mg3751   2.133       .  S
H3744      C3746   1.081       .  S
H3745      C3748   1.081       .  S
C3753      N3774   1.448       .  S
O3754      C3755   1.275       .  A
C3755      C3830   1.477       .  S
N3760      C3764   1.368       .  A
N3760      C3761   1.357       .  A
C3761      C4100   1.468       .  S
C3761      C3762   1.377       .  A
C3762      H3765   1.082       .  S
C3762      C3763   1.368       .  A
C3763      H3766   1.083       .  S
C3763      C3764   1.386       .  A
N3767      C3771   1.367       .  A
N3767      C3768   1.353       .  A
C3768      C3935   1.458       .  S
C3768      C3769   1.375       .  A
C3769      H3772   1.082       .  S
C3769      C3770   1.365       .  A
C3770      H3773   1.083       .  S
C3770      C3771   1.387       .  A
N3774      C3778   1.370       .  A
N3774      C3775   1.357       .  A
C3775      C3797   1.463       .  S
C3775      C3776   1.375       .  A
C3776      H3779   1.083       .  S
C3776      C3777   1.364       .  A
C3777      H3780   1.083       .  S
C3777      C3778   1.386       .  A
O3781     Mg3783   2.151       .  S
O3781     Mg3789   2.119       .  S
C3782      H3821   1.081       .  S
Mg3783     O3812   2.080       .  S
Mg3783     O3827   2.333       .  S
Mg3783     O3823   2.284       .  S
Mg3783     O3794   2.339       .  S
O3784     Mg3809   2.144       .  S
O3784      C3805   1.242       .  S
O3785      C3816   1.280       .  A
O3785     Mg3809   2.344       .  S
C3786      O3800   1.275       .  A
O3787      C3815   1.275       .  A
O3787     Mg3789   2.322       .  S
O3788     Mg3820   2.201       .  S
Mg3789     O3803   2.207       .  S
C3790      O3828   1.266       .  A
C3790      O3796   1.270       .  A
C3790      N3843   1.446       .  S
O3791      C3798   1.269       .  A
H3792      C3805   1.082       .  S
C3793      O3807   1.241   1_655  S
C3793      H3818   1.081       .  S
O3794      C3817   1.279       .  A
O3795     Mg3809   2.082       .  S
O3796     Mg3826   2.354       .  S
C3797      O3810   1.263       .  A
C3798      O3825   1.265       .  A
C3798      N3829   1.443       .  S
Mg3799     O3806   2.149       .  S
O3801      C3805   1.279       .  A
O3802     Mg3809   2.335       .  S
O3803      C3822   1.263       .  A
O3804      C3824   1.270       .  A
O3804     Mg3820   2.351       .  S
O3806     Mg3820   2.120       .  S
O3806      C3817   1.242       .  S
O3808     Mg3820   2.322       .  S
Mg3809     O3825   2.278       .  S
O3810     Mg3826   2.207       .  S
H3811      C3816   1.082       .  S
O3812     Mg3820   2.134       .  S
O3812      C3815   1.240       .  S
H3813      C3815   1.081       .  S
H3814      C3817   1.082       .  S
C3822      C4182   1.460       .  S
C3822      O3827   1.276       .  A
O3823      C3824   1.266       .  A
C3824      N3836   1.444       .  S
N3829      C3833   1.370       .  A
N3829      C3830   1.359       .  A
C3830      C3831   1.378       .  A
C3831      H3834   1.083       .  S
C3831      C3832   1.370       .  A
C3832      H3835   1.082       .  S
C3832      C3833   1.386       .  A
N3836      C3840   1.371       .  A
N3836      C3837   1.360       .  A
C3837      C4143   1.476       .  S
C3837      C3838   1.377       .  A
C3838      H3841   1.083       .  S
C3838      C3839   1.368       .  A
C3839      H3842   1.082       .  S
C3839      C3840   1.387       .  A
N3843      C3847   1.372       .  A
N3843      C3844   1.359       .  A
C3844      C3845   1.377   1_655  A
C3845      H3848   1.083       .  S
C3845      C3846   1.368   1_455  A
C3846      H3849   1.083       .  S
C3846      C3847   1.386       .  A
O3850     Mg3852   2.106   1_556  S
O3850     Mg4458   2.129       .  S
O3850      C3885   1.241   1_556  S
C3851      O3864   1.242       .  S
C3851      O3888   1.276       .  A
C3851      H3890   1.081       .  S
Mg3852     O3881   2.136       .  S
Mg3852     O3896   2.319   1_554  S
Mg3852     O3892   2.271       .  S
Mg3852     O3863   2.305       .  S
O3853     Mg3895   2.129       .  S
O3853     Mg4478   2.111       .  S
O3853      C3874   1.241   1_556  S
O3854      C3885   1.275   1_556  A
O3854     Mg4478   2.308       .  S
C3855      O3857   1.268       .  A
C3855      O3869   1.276       .  A
C3855      N3905   1.444       .  S
O3856      C3884   1.275       .  A
O3856     Mg3858   2.310       .  S
O3857     Mg3889   2.271       .  S
Mg3858     O4450   2.129       .  S
Mg3858     O3864   2.131       .  S
Mg3858     O3872   2.294       .  S
Mg3858     O3860   2.311       .  S
C3859      C4044   1.472       .  S
C3859      O3897   1.272       .  A
C3859      O3865   1.273       .  A
O3860      C3867   1.274       .  A
H3861      C3874   1.081       .  S
C3862      O3876   1.241       .  S
C3862      O3877   1.275       .  A
C3862      H3887   1.081   1_554  S
O3863      C3886   1.274       .  A
O3864     Mg3878   2.129       .  S
O3865     Mg3895   2.303   1_554  S
C3866      O3879   1.271       .  A
C3866      O3871   1.276       .  A
C3866      N3898   1.448       .  S
C3867      C4113   1.475       .  S
C3867      O3894   1.273       .  A
Mg3868     O3875   2.107       .  S
Mg3868     O3876   2.130       .  S
Mg3868     O3869   2.306       .  S
Mg3868     O3870   2.309       .  S
Mg3868     O3897   2.264       .  S
O3870      C3874   1.275       .  A
O3871     Mg3878   2.308       .  S
O3872      C3891   1.272       .  A
O3873      C3893   1.269       .  A
O3873     Mg3889   2.278       .  S
O3875     Mg3889   2.131       .  S
O3875      C3886   1.240       .  S
O3876     Mg3895   2.124   1_554  S
O3877     Mg3889   2.308       .  S
Mg3878     O4453   2.111       .  S
Mg3878     O4454   2.308       .  S
Mg3878     O3894   2.267       .  S
O3879     Mg4495   2.285       .  S
H3880      C3885   1.081       .  S
O3881     Mg3889   2.129       .  S
O3881      C4484   1.242   1_554  S
H3882      C3884   1.081       .  S
H3883      C3886   1.081       .  S
C3884      O4481   1.242       .  S
O3888     Mg4495   2.311       .  S
C3891      O4496   1.279       .  A
C3891      N3912   1.448       .  S
O3892      C3893   1.274       .  A
C3893      C3968   1.476       .  S
Mg3895     O4479   2.285       .  S
Mg3895     O4488   2.311       .  S
O3896      C4491   1.279       .  A
N3898      C3902   1.369       .  A
N3898      C3899   1.360       .  A
C3899      C4074   1.470       .  S
C3899      C3900   1.377       .  A
C3900      H3903   1.083       .  S
C3900      C3901   1.366       .  A
C3901      H3904   1.083       .  S
C3901      C3902   1.386       .  A
C3902      C4197   1.480       .  S
N3905      C3909   1.366       .  A
N3905      C3906   1.357       .  A
C3906      C4005   1.467       .  S
C3906      C3907   1.377       .  A
C3907      H3910   1.083       .  S
C3907      C3908   1.367       .  A
C3908      H3911   1.083       .  S
C3908      C3909   1.387       .  A
N3912      C3916   1.369       .  A
N3912      C3913   1.357       .  A
C3913      C3924   1.460       .  S
C3913      C3914   1.375       .  A
C3914      H3917   1.083       .  S
C3914      C3915   1.363       .  A
C3915      H3918   1.083       .  S
C3915      C3916   1.387       .  A
O3919     Mg3921   2.144       .  S
O3919     Mg3927   2.117       .  S
O3919      C3954   1.242       .  S
C3920      O3933   1.241       .  S
C3920      O3957   1.276       .  A
C3920      H3959   1.081       .  S
Mg3921     O4550   2.082       .  S
Mg3921     O4565   2.336       .  S
O3922     Mg3964   2.120       .  S
O3922     Mg3947   2.149       .  S
O3923      C3954   1.279       .  A
O3923     Mg3947   2.338       .  S
C3924      O3926   1.263       .  A
C3924      O4538   1.276       .  A
O3925      C4553   1.276   1_554  A
O3925     Mg3927   2.325       .  S
O3926     Mg3958   2.207       .  S
Mg3927     O3933   2.135       .  S
Mg3927     O3941   2.207       .  S
Mg3927     O3929   2.353       .  S
C3928      O3966   1.266       .  A
C3928      O3934   1.270       .  A
C3928      N3967   1.444       .  S
O3929      C3936   1.270       .  A
H3930      C3943   1.082       .  S
C3931      O4546   1.275   1_554  A
C3931      H3956   1.081       .  S
O3932      C3955   1.280       .  A
O3933     Mg3947   2.080       .  S
C3935      O3948   1.263       .  A
C3935      O3940   1.275       .  A
C3936      O3963   1.266       .  A
C3936      N3974   1.446       .  S
Mg3937     O3944   2.151       .  S
Mg3937     O3945   2.080       .  S
Mg3937     O3938   2.333       .  S
Mg3937     O3939   2.339       .  S
Mg3937     O3966   2.284       .  S
O3938      C4524   1.276   1_554  A
O3939      C3943   1.279       .  A
O3940     Mg3947   2.325       .  S
O3941      C4560   1.263       .  A
O3942      C3962   1.269       .  A
O3942     Mg3958   2.346       .  S
O3944     Mg4558   2.119   1_554  S
O3944      C3955   1.242       .  S
O3946      C4531   1.275       .  A
Mg3947     O3963   2.285       .  S
O3948     Mg3964   2.201       .  S
H3949      C3954   1.082       .  S
O3950     Mg4521   2.082       .  S
O3950      C3953   1.240       .  S
H3951      C3953   1.081       .  S
H3952      C3955   1.082       .  S
C3953      O4525   1.276       .  A
O3957     Mg3964   2.322       .  S
Mg3958     O4544   2.119       .  S
C3960      O4541   1.263       .  A
C3960      O3965   1.276       .  A
O3961      C3962   1.265       .  A
C3962      N3981   1.443       .  S
O3965     Mg4521   2.335       .  S
N3967      C3971   1.371       .  A
N3967      C3968   1.360       .  A
C3968      C3969   1.377       .  A
C3969      H3972   1.083       .  S
C3969      C3970   1.368       .  A
C3970      H3973   1.082       .  S
C3970      C3971   1.387       .  A
N3974      C3978   1.372       .  A
N3974      C3975   1.359       .  A
C3975      C3976   1.378       .  A
C3976      H3979   1.083       .  S
C3976      C3977   1.368       .  A
C3977      H3980   1.082       .  S
C3977      C3978   1.386       .  A
N3981      C3985   1.370       .  A
N3981      C3982   1.359       .  A
C3982      C3983   1.378       .  A
C3983      H3986   1.083       .  S
C3983      C3984   1.370       .  A
C3984      H3987   1.082       .  S
C3984      C3985   1.386       .  A
O3988     Mg4590   2.105       .  S
O3988     Mg3996   2.129       .  S
O3988      C4023   1.241   1_556  S
C3989      O4002   1.242       .  S
C3989      O4026   1.275       .  A
C3989      H4028   1.081   1_554  S
Mg3990     O4588   2.105       .  S
Mg3990     O4019   2.132       .  S
Mg3990     O4034   2.303       .  S
O3991     Mg4033   2.128       .  S
O3991     Mg4016   2.097       .  S
O3991      C4012   1.241       .  S
O3992      C4023   1.275       .  A
O3992     Mg4016   2.310       .  S
C3993      O3995   1.270       .  A
C3993      O4607   1.276       .  A
C3993      N4050   1.447       .  S
O3994      C4022   1.275       .  A
O3994     Mg4596   2.308       .  S
Mg3996     O4002   2.130   1_556  S
Mg3996     O4594   2.308       .  S
Mg3996     O4610   2.279       .  S
Mg3996     O3998   2.280   1_556  S
C3997      O4003   1.270       .  A
O3998      C4005   1.270       .  A
H3999      C4012   1.081       .  S
C4000      O4614   1.242       .  S
C4000      O4015   1.275       .  A
C4000      H4025   1.081       .  S
O4001      C4024   1.274       .  A
O4002     Mg4016   2.131       .  S
O4003     Mg4033   2.284       .  S
C4004      O4017   1.269       .  A
C4004      O4009   1.278       .  A
C4004      N4043   1.448       .  S
C4005      O4032   1.272       .  A
Mg4006     O4013   2.103   1_564  S
Mg4006     O4007   2.307   1_554  S
Mg4006     O4008   2.308   1_565  S
Mg4006     O4035   2.255       .  S
O4007      C4593   1.276       .  A
O4009     Mg4016   2.318       .  S
O4010      C4029   1.269       .  A
O4010     Mg4596   2.279       .  S
O4011      C4031   1.272       .  A
O4013      C4024   1.240   1_545  S
O4014     Mg4033   2.128       .  S
O4014      C4600   1.242   1_554  S
O4015     Mg4027   2.310       .  S
Mg4016     O4032   2.258       .  S
O4017     Mg4033   2.283       .  S
H4018      C4023   1.081       .  S
O4019     Mg4027   2.125       .  S
O4019      C4022   1.242       .  S
H4020      C4022   1.081       .  S
H4021      C4024   1.081   1_554  S
O4026     Mg4033   2.310       .  S
C4029      O4034   1.276       .  A
C4029      N4036   1.444       .  S
O4030      C4031   1.272   1_545  A
C4031      C4189   1.470       .  S
N4036      C4040   1.370       .  A
N4036      C4037   1.361       .  A
C4037      C4135   1.475       .  S
C4037      C4038   1.376       .  A
C4038      H4041   1.083       .  S
C4038      C4039   1.369       .  A
C4039      H4042   1.082       .  S
C4039      C4040   1.388       .  A
N4043      C4047   1.372       .  A
N4043      C4044   1.361       .  A
C4044      C4045   1.376       .  A
C4045      H4048   1.083       .  S
C4045      C4046   1.367       .  A
C4046      H4049   1.083       .  S
C4046      C4047   1.387       .  A
N4050      C4054   1.370       .  A
N4050      C4051   1.361       .  A
C4051      C4052   1.377       .  A
C4052      H4055   1.083   1_565  S
C4052      C4053   1.369       .  A
C4053      H4056   1.083       .  S
C4053      C4054   1.386       .  A
O4057     Mg4059   2.103       .  S
O4057     Mg4065   2.127       .  S
O4057      C4092   1.240       .  S
C4058      O4071   1.242       .  S
C4058      O4095   1.275       .  A
C4058      H4097   1.081       .  S
Mg4059     O4088   2.130       .  S
Mg4059     O4103   2.307       .  S
Mg4059     O4099   2.255       .  S
Mg4059     O4070   2.308       .  S
O4060     Mg4102   2.129       .  S
O4060     Mg4085   2.105       .  S
O4060      C4081   1.241       .  S
O4061      C4092   1.274       .  A
O4061     Mg4085   2.306       .  S
C4062      O4064   1.269       .  A
C4062      O4076   1.278       .  A
C4062      N4105   1.448       .  S
O4063      C4091   1.275       .  A
O4063     Mg4065   2.310       .  S
O4064     Mg4096   2.283       .  S
Mg4065     O4071   2.125       .  S
Mg4065     O4079   2.280       .  S
Mg4065     O4067   2.293       .  S
C4066      C4175   1.467       .  S
C4066      O4104   1.272       .  A
C4066      O4072   1.270       .  A
O4067      C4074   1.272       .  A
H4068      C4081   1.081       .  S
C4069      O4083   1.242       .  S
C4069      O4084   1.275       .  A
C4069      H4094   1.081       .  S
O4070      C4093   1.275       .  A
O4071     Mg4085   2.132       .  S
O4072     Mg4102   2.280       .  S
C4073      O4086   1.269       .  A
C4073      O4078   1.276       .  A
C4073      N4112   1.444       .  S
C4074      O4101   1.272       .  A
Mg4075     O4082   2.097       .  S
Mg4075     O4083   2.131       .  S
Mg4075     O4076   2.318       .  S
Mg4075     O4077   2.310       .  S
Mg4075     O4104   2.258       .  S
O4077      C4081   1.275       .  A
O4078     Mg4085   2.303       .  S
O4079      C4098   1.270       .  A
O4080      C4100   1.270       .  A
O4080     Mg4096   2.284       .  S
O4082     Mg4096   2.128       .  S
O4082      C4093   1.241       .  S
O4083     Mg4102   2.130       .  S
O4084     Mg4096   2.310       .  S
Mg4085     O4101   2.263       .  S
O4086     Mg4102   2.279       .  S
H4087      C4092   1.081       .  S
O4088     Mg4096   2.128       .  S
O4088      C4091   1.242       .  S
H4089      C4091   1.081       .  S
H4090      C4093   1.081       .  S
O4095     Mg4102   2.308       .  S
C4098      O4103   1.276       .  A
C4098      N4119   1.447       .  S
O4099      C4100   1.272       .  A
N4105      C4109   1.372       .  A
N4105      C4106   1.361       .  A
C4106      C4169   1.472       .  S
C4106      C4107   1.376       .  A
C4107      H4110   1.083       .  S
C4107      C4108   1.367       .  A
C4108      H4111   1.083       .  S
C4108      C4109   1.387       .  A
N4112      C4116   1.370       .  A
N4112      C4113   1.361       .  A
C4113      C4114   1.376       .  A
C4114      H4117   1.083       .  S
C4114      C4115   1.369       .  A
C4115      H4118   1.082       .  S
C4115      C4116   1.388       .  A
N4119      C4123   1.370       .  A
N4119      C4120   1.361       .  A
C4120      C4121   1.377       .  A
C4121      H4124   1.083       .  S
C4121      C4122   1.369       .  A
C4122      H4125   1.083       .  S
C4122      C4123   1.386       .  A
O4126     Mg4134   2.131       .  S
O4126      C4161   1.240       .  S
C4127      O4140   1.242       .  S
C4127      O4164   1.275       .  A
C4127      H4166   1.081       .  S
Mg4128     O4157   2.130       .  S
Mg4128     O4172   2.306       .  S
Mg4128     O4168   2.264       .  S
O4129     Mg4171   2.129       .  S
O4129     Mg4154   2.106       .  S
O4129      C4150   1.241       .  S
O4130      C4161   1.274       .  A
O4130     Mg4154   2.305       .  S
C4131      O4133   1.271       .  A
C4131      N4188   1.448       .  S
O4132      C4160   1.275       .  A
O4133     Mg4165   2.285       .  S
Mg4134     O4140   2.129       .  S
Mg4134     O4136   2.278       .  S
C4135      O4173   1.273       .  A
C4135      O4141   1.274       .  A
O4136      C4143   1.269       .  A
H4137      C4150   1.081       .  S
C4138      O4153   1.276       .  A
C4138      H4163   1.081       .  S
O4139      C4162   1.275       .  A
O4140     Mg4154   2.136       .  S
O4141     Mg4171   2.310       .  S
C4142      O4155   1.272       .  A
C4142      O4147   1.279       .  A
C4142      N4181   1.448       .  S
C4143      O4170   1.274       .  A
Mg4144     O4151   2.111       .  S
Mg4144     O4152   2.128       .  S
Mg4144     O4145   2.308       .  S
Mg4144     O4146   2.308       .  S
Mg4144     O4173   2.267       .  S
O4146      C4150   1.275       .  A
O4147     Mg4154   2.319       .  S
O4148      C4167   1.268       .  A
O4149      C4169   1.273       .  A
O4149     Mg4165   2.303       .  S
O4151      C4162   1.241       .  S
O4152     Mg4171   2.131       .  S
O4153     Mg4165   2.311       .  S
Mg4154     O4170   2.271       .  S
O4155     Mg4171   2.294       .  S
H4156      C4161   1.081       .  S
O4157     Mg4165   2.124       .  S
O4157      C4160   1.241       .  S
H4158      C4160   1.081       .  S
H4159      C4162   1.081       .  S
O4164     Mg4171   2.310       .  S
C4167      O4172   1.276       .  A
C4167      N4174   1.444       .  S
O4168      C4169   1.272       .  A
N4174      C4178   1.366       .  A
N4174      C4175   1.357       .  A
C4175      C4176   1.377       .  A
C4176      H4179   1.083       .  S
C4176      C4177   1.367       .  A
C4177      H4180   1.083       .  S
C4177      C4178   1.387       .  A
N4181      C4185   1.369       .  A
N4181      C4182   1.357       .  A
C4182      C4183   1.375       .  A
C4183      H4186   1.083       .  S
C4183      C4184   1.363       .  A
C4184      H4187   1.083       .  S
C4184      C4185   1.387       .  A
C4185      C4199   1.476       .  S
N4188      C4192   1.369       .  A
N4188      C4189   1.360       .  A
C4189      C4190   1.377       .  A
C4190      H4193   1.083       .  S
C4190      C4191   1.366       .  A
C4191      H4194   1.083       .  S
C4191      C4192   1.386       .  A
C4195      N4196   1.363       .  A
C4195      N4200   1.352       .  A
N4196      C4197   1.354       .  A
C4197      N4198   1.362       .  A
N4198      C4199   1.354       .  A
C4199      N4200   1.362       .  A
C4201      N4202   1.354       .  A
C4201      N4206   1.362       .  A
C4201      C4516   1.476       .  S
N4202      C4203   1.362       .  A
C4203      N4204   1.354       .  A
C4203      C4792   1.480       .  S
N4204      C4205   1.363       .  A
C4205      N4206   1.352       .  A
C4205      C4378   1.478       .  S
C4207      N4208   1.356       .  A
C4207      N4212   1.361       .  A
C4207      C4778   1.479       .  S
N4208      C4209   1.363       .  A
C4209      N4210   1.353       .  A
C4209      C4309   1.480       .  S
N4210      C4211   1.361       .  A
C4211      N4212   1.352       .  A
C4211      C4371   1.475       .  S
C4213      N4214   1.358       .  A
C4213      N4218   1.365       .  A
C4213      C4571   1.489       .  S
N4214      C4215   1.368       .  A
C4215      N4216   1.355       .  A
C4215      C4447   1.486       .  S
N4216      C4217   1.364       .  A
C4217      N4218   1.356       .  A
C4217      C4709   1.487       .  S
C4219      N4220   1.368       .  A
C4219      N4224   1.355       .  A
C4219      C4578   1.486       .  S
N4220      C4221   1.358       .  A
C4221      N4222   1.365       .  A
C4221      C4440   1.489       .  S
N4222      C4223   1.356       .  A
C4223      N4224   1.364       .  A
C4223      C4647   1.487       .  S
C4225      N4226   1.361       .  A
C4225      N4230   1.352       .  A
C4225      C4302   1.475       .  S
N4226      C4227   1.353       .  A
C4227      N4228   1.363       .  A
C4227      C4364   1.480       .  S
N4228      C4229   1.356       .  A
C4229      N4230   1.361       .  A
C4229      C4509   1.479       .  S
C4231      N4232   1.365       .  A
C4231      N4236   1.355       .  A
C4231      C4723   1.484       .  S
N4232      C4233   1.357       .  A
C4233      N4234   1.367       .  A
C4233      C4585   1.487       .  S
N4234      C4235   1.358       .  A
C4235      N4236   1.362       .  A
C4235      C4640   1.489       .  S
C4237      N4238   1.367       .  A
C4237      N4242   1.357       .  A
C4237      C4433   1.487       .  S
N4238      C4239   1.358       .  A
C4239      N4240   1.362       .  A
C4239      C4716   1.489       .  S
N4240      C4241   1.355       .  A
C4241      N4242   1.365       .  A
C4241      C4654   1.484       .  S
O4243     Mg4245   2.102   1_455  S
O4243     Mg4251   2.131       .  S
O4243      C4278   1.240   1_455  S
C4244      O4257   1.242       .  S
C4244      O4281   1.276       .  A
C4244      H4283   1.081       .  S
Mg4245     O4289   2.323       .  S
O4246     Mg4288   2.131       .  S
O4246     Mg4271   2.111   1_554  S
O4246      C4267   1.241   1_554  S
C4248      O4250   1.268       .  A
C4248      O4262   1.278       .  A
C4248      N4305   1.446       .  S
O4249      C4277   1.275       .  A
O4250     Mg4282   2.274   1_565  S
Mg4251     O4265   2.278   1_455  S
Mg4251     O4253   2.286   1_455  S
C4252      C4651   1.475   1_545  S
C4252      O4290   1.274   1_546  A
H4254      C4267   1.081       .  S
C4255      O4269   1.242       .  S
C4255      O4270   1.275       .  A
C4255      H4280   1.081       .  S
O4258     Mg4288   2.306   1_556  S
C4259      O4272   1.271       .  A
C4259      O4264   1.280       .  A
C4259      N4291   1.448       .  S
C4260      C4582   1.477   1_554  S
C4260      O4287   1.275   1_654  A
Mg4261     O4268   2.107   1_565  S
Mg4261     O4262   2.314       .  S
O4264     Mg4271   2.319       .  S
O4265      C4284   1.269       .  A
O4266     Mg4282   2.272   1_565  S
O4268     Mg4282   2.133       .  S
O4268      C4279   1.240   1_545  S
O4272     Mg4288   2.290   1_556  S
H4273      C4278   1.081       .  S
O4274      C4277   1.241       .  S
H4275      C4277   1.081       .  S
H4276      C4279   1.081       .  S
C4284      O4289   1.281       .  A
C4284      N4298   1.445       .  S
O4285      C4286   1.275   1_645  A
C4286      C4444   1.475   1_455  S
N4291      C4295   1.370       .  A
N4291      C4292   1.357       .  A
C4292      C4560   1.463   1_556  S
C4292      C4293   1.375       .  A
C4293      H4296   1.083       .  S
C4293      C4294   1.364       .  A
C4294      H4297   1.083       .  S
C4294      C4295   1.386       .  A
C4295      C4795   1.478       .  S
N4298      C4302   1.367       .  A
N4298      C4299   1.353       .  A
C4299      C4386   1.458   1_655  S
C4299      C4300   1.376       .  A
C4300      H4303   1.083       .  S
C4300      C4301   1.365       .  A
C4301      H4304   1.083       .  S
C4301      C4302   1.387       .  A
N4305      C4309   1.368       .  A
N4305      C4306   1.357       .  A
C4306      C4307   1.377       .  A
C4307      H4310   1.082   1_565  S
C4307      C4308   1.368       .  A
C4308      H4311   1.083       .  S
C4308      C4309   1.386       .  A
O4312     Mg4314   2.111       .  S
O4312      C4347   1.241       .  S
C4313      O4326   1.242       .  S
C4313      O4350   1.275       .  A
C4313      H4352   1.081       .  S
Mg4314     O4343   2.135       .  S
Mg4314     O4358   2.319       .  S
Mg4314     O4354   2.272       .  S
Mg4314     O4325   2.303       .  S
O4315     Mg4357   2.133       .  S
O4315      C4336   1.240       .  S
O4316      C4347   1.275       .  A
C4317      O4319   1.269       .  A
C4317      O4331   1.281       .  A
C4317      N4367   1.445       .  S
O4318      C4346   1.276       .  A
O4318     Mg4320   2.312       .  S
O4319     Mg4351   2.278       .  S
Mg4320     O4326   2.127       .  S
Mg4320     O4334   2.290       .  S
Mg4320     O4322   2.306       .  S
C4321      C4575   1.475       .  S
C4321      O4359   1.275       .  A
C4321      O4327   1.269       .  A
O4322      C4329   1.274       .  A
H4323      C4336   1.081       .  S
C4324      O4338   1.241       .  S
C4324      O4339   1.275       .  A
C4324      H4349   1.081       .  S
O4325      C4348   1.274       .  A
O4326     Mg4340   2.130       .  S
O4327     Mg4357   2.273       .  S
C4328      O4341   1.268       .  A
C4328      O4333   1.278       .  A
C4328      N4360   1.446       .  S
C4329      C4720   1.476       .  S
C4329      O4356   1.274       .  A
Mg4330     O4337   2.102       .  S
Mg4330     O4338   2.138       .  S
Mg4330     O4331   2.323       .  S
Mg4330     O4332   2.303       .  S
Mg4330     O4359   2.272       .  S
O4332      C4336   1.274       .  A
O4333     Mg4340   2.314       .  S
O4334      C4353   1.271       .  A
O4335      C4355   1.270       .  A
O4335     Mg4351   2.286       .  S
O4337     Mg4351   2.131       .  S
O4337      C4348   1.240       .  S
O4338     Mg4357   2.129       .  S
O4339     Mg4351   2.307       .  S
Mg4340     O4356   2.272       .  S
H4342      C4347   1.081       .  S
O4343     Mg4351   2.133       .  S
H4344      C4346   1.081       .  S
H4345      C4348   1.081       .  S
C4353      N4374   1.448       .  S
O4354      C4355   1.275       .  A
C4355      C4430   1.477       .  S
N4360      C4364   1.368       .  A
N4360      C4361   1.357       .  A
C4361      C4700   1.468       .  S
C4361      C4362   1.377       .  A
C4362      H4365   1.082       .  S
C4362      C4363   1.368       .  A
C4363      H4366   1.083       .  S
C4363      C4364   1.386       .  A
N4367      C4371   1.367       .  A
N4367      C4368   1.353       .  A
C4368      C4535   1.458       .  S
C4368      C4369   1.376       .  A
C4369      H4372   1.082       .  S
C4369      C4370   1.365       .  A
C4370      H4373   1.083       .  S
C4370      C4371   1.387       .  A
N4374      C4378   1.370       .  A
N4374      C4375   1.357       .  A
C4375      C4397   1.463       .  S
C4375      C4376   1.375       .  A
C4376      H4379   1.083       .  S
C4376      C4377   1.364       .  A
C4377      H4380   1.083       .  S
C4377      C4378   1.386       .  A
O4381     Mg4383   2.151       .  S
O4381     Mg4389   2.119       .  S
C4382      H4421   1.081       .  S
Mg4383     O4412   2.080       .  S
Mg4383     O4427   2.333       .  S
Mg4383     O4423   2.284       .  S
Mg4383     O4394   2.339       .  S
O4384     Mg4409   2.144       .  S
O4384      C4405   1.242       .  S
O4385      C4416   1.280       .  A
O4385     Mg4409   2.344       .  S
C4386      O4400   1.275       .  A
O4387      C4415   1.275       .  A
O4387     Mg4389   2.322       .  S
O4388     Mg4420   2.201       .  S
Mg4389     O4403   2.207       .  S
C4390      O4428   1.266       .  A
C4390      O4396   1.270       .  A
C4390      N4443   1.446       .  S
O4391      C4398   1.269       .  A
H4392      C4405   1.082       .  S
C4393      O4407   1.241   1_655  S
C4393      H4418   1.081       .  S
O4394      C4417   1.279       .  A
O4395     Mg4409   2.082       .  S
O4396     Mg4426   2.354       .  S
C4397      O4410   1.263       .  A
C4398      O4425   1.265       .  A
C4398      N4429   1.443       .  S
Mg4399     O4406   2.149       .  S
O4401      C4405   1.279       .  A
O4402     Mg4409   2.335       .  S
O4403      C4422   1.263       .  A
O4404      C4424   1.270       .  A
O4404     Mg4420   2.351       .  S
O4406     Mg4420   2.120       .  S
O4406      C4417   1.242       .  S
O4408     Mg4420   2.322       .  S
Mg4409     O4425   2.278       .  S
O4410     Mg4426   2.207       .  S
H4411      C4416   1.082       .  S
O4412     Mg4420   2.134       .  S
O4412      C4415   1.240       .  S
H4413      C4415   1.081       .  S
H4414      C4417   1.082       .  S
C4422      C4782   1.460       .  S
C4422      O4427   1.276       .  A
O4423      C4424   1.266       .  A
C4424      N4436   1.444       .  S
N4429      C4433   1.370       .  A
N4429      C4430   1.359       .  A
C4430      C4431   1.378       .  A
C4431      H4434   1.083       .  S
C4431      C4432   1.370       .  A
C4432      H4435   1.082       .  S
C4432      C4433   1.386       .  A
N4436      C4440   1.371       .  A
N4436      C4437   1.360       .  A
C4437      C4743   1.476       .  S
C4437      C4438   1.377       .  A
C4438      H4441   1.083       .  S
C4438      C4439   1.368       .  A
C4439      H4442   1.082       .  S
C4439      C4440   1.387       .  A
N4443      C4447   1.372       .  A
N4443      C4444   1.359       .  A
C4444      C4445   1.378   1_655  A
C4445      H4448   1.083       .  S
C4445      C4446   1.368   1_455  A
C4446      H4449   1.083       .  S
C4446      C4447   1.386       .  A
O4450     Mg4452   2.106       .  S
O4450      C4485   1.241       .  S
C4451      O4464   1.242       .  S
C4451      O4488   1.276       .  A
C4451      H4490   1.081       .  S
Mg4452     O4481   2.136       .  S
Mg4452     O4496   2.319       .  S
Mg4452     O4492   2.271       .  S
Mg4452     O4463   2.305       .  S
O4453     Mg4495   2.129       .  S
O4453      C4474   1.241       .  S
O4454      C4485   1.275       .  A
C4455      O4457   1.268       .  A
C4455      O4469   1.276       .  A
C4455      N4505   1.444       .  S
O4456      C4484   1.275       .  A
O4456     Mg4458   2.310       .  S
O4457     Mg4489   2.271       .  S
Mg4458     O4464   2.131       .  S
Mg4458     O4472   2.294       .  S
Mg4458     O4460   2.311       .  S
C4459      C4644   1.472       .  S
C4459      O4497   1.272       .  A
C4459      O4465   1.273       .  A
O4460      C4467   1.274       .  A
H4461      C4474   1.081       .  S
C4462      O4476   1.241       .  S
C4462      O4477   1.275       .  A
C4462      H4487   1.081       .  S
O4463      C4486   1.274       .  A
O4464     Mg4478   2.128       .  S
O4465     Mg4495   2.303       .  S
C4466      O4479   1.271       .  A
C4466      O4471   1.276       .  A
C4466      N4498   1.448       .  S
C4467      C4713   1.475       .  S
C4467      O4494   1.273       .  A
Mg4468     O4475   2.107       .  S
Mg4468     O4476   2.130       .  S
Mg4468     O4469   2.306       .  S
Mg4468     O4470   2.309       .  S
Mg4468     O4497   2.264       .  S
O4470      C4474   1.275       .  A
O4471     Mg4478   2.308       .  S
O4472      C4491   1.272       .  A
O4473      C4493   1.269       .  A
O4473     Mg4489   2.278       .  S
O4475     Mg4489   2.131       .  S
O4475      C4486   1.240       .  S
O4476     Mg4495   2.124       .  S
O4477     Mg4489   2.308       .  S
Mg4478     O4494   2.267       .  S
H4480      C4485   1.081       .  S
O4481     Mg4489   2.129       .  S
H4482      C4484   1.081       .  S
H4483      C4486   1.081       .  S
C4491      N4512   1.448       .  S
O4492      C4493   1.274       .  A
C4493      C4568   1.476       .  S
N4498      C4502   1.369       .  A
N4498      C4499   1.360       .  A
C4499      C4674   1.470       .  S
C4499      C4500   1.377       .  A
C4500      H4503   1.083       .  S
C4500      C4501   1.366       .  A
C4501      H4504   1.083       .  S
C4501      C4502   1.386       .  A
C4502      C4797   1.480       .  S
N4505      C4509   1.366       .  A
N4505      C4506   1.357       .  A
C4506      C4605   1.467       .  S
C4506      C4507   1.377       .  A
C4507      H4510   1.083       .  S
C4507      C4508   1.367       .  A
C4508      H4511   1.083       .  S
C4508      C4509   1.387       .  A
N4512      C4516   1.369       .  A
N4512      C4513   1.357       .  A
C4513      C4524   1.460       .  S
C4513      C4514   1.375       .  A
C4514      H4517   1.083       .  S
C4514      C4515   1.363       .  A
C4515      H4518   1.083       .  S
C4515      C4516   1.387       .  A
O4519     Mg4521   2.144       .  S
O4519     Mg4527   2.117       .  S
O4519      C4554   1.242       .  S
C4520      O4533   1.241       .  S
C4520      O4557   1.276       .  A
C4520      H4559   1.081       .  S
O4522     Mg4564   2.120       .  S
O4522     Mg4547   2.149       .  S
O4523      C4554   1.279       .  A
O4523     Mg4547   2.338       .  S
C4524      O4526   1.263       .  A
O4525     Mg4527   2.325       .  S
O4526     Mg4558   2.207       .  S
Mg4527     O4533   2.134       .  S
Mg4527     O4541   2.207       .  S
Mg4527     O4529   2.354       .  S
C4528      O4566   1.266       .  A
C4528      O4534   1.270       .  A
C4528      N4567   1.444       .  S
O4529      C4536   1.270       .  A
H4530      C4543   1.082       .  S
C4531      H4556   1.081       .  S
O4532      C4555   1.280       .  A
O4533     Mg4547   2.080       .  S
C4535      O4548   1.263       .  A
C4535      O4540   1.275       .  A
C4536      O4563   1.266       .  A
C4536      N4574   1.446       .  S
Mg4537     O4544   2.151       .  S
Mg4537     O4545   2.080       .  S
Mg4537     O4538   2.333       .  S
Mg4537     O4539   2.339       .  S
Mg4537     O4566   2.284       .  S
O4539      C4543   1.279       .  A
O4540     Mg4547   2.325       .  S
O4542      C4562   1.269       .  A
O4542     Mg4558   2.346       .  S
O4544      C4555   1.242       .  S
Mg4547     O4563   2.284       .  S
O4548     Mg4564   2.201       .  S
H4549      C4554   1.082       .  S
O4550      C4553   1.240   1_554  S
H4551      C4553   1.081       .  S
H4552      C4555   1.082       .  S
O4557     Mg4564   2.322       .  S
C4560      O4565   1.276       .  A
O4561      C4562   1.265       .  A
C4562      N4581   1.443       .  S
N4567      C4571   1.371       .  A
N4567      C4568   1.360       .  A
C4568      C4569   1.377       .  A
C4569      H4572   1.083       .  S
C4569      C4570   1.368       .  A
C4570      H4573   1.082       .  S
C4570      C4571   1.387       .  A
N4574      C4578   1.372       .  A
N4574      C4575   1.359       .  A
C4575      C4576   1.378       .  A
C4576      H4579   1.083       .  S
C4576      C4577   1.368       .  A
C4577      H4580   1.083       .  S
C4577      C4578   1.386       .  A
N4581      C4585   1.370       .  A
N4581      C4582   1.359       .  A
C4582      C4583   1.378   1_556  A
C4583      H4586   1.083       .  S
C4583      C4584   1.370   1_554  A
C4584      H4587   1.082       .  S
C4584      C4585   1.386       .  A
O4588     Mg4596   2.129       .  S
O4588      C4623   1.241       .  S
C4589      O4602   1.242       .  S
C4589      O4626   1.275       .  A
C4589      H4628   1.081       .  S
Mg4590     O4619   2.132       .  S
Mg4590     O4634   2.303       .  S
O4591     Mg4633   2.128       .  S
O4591     Mg4616   2.097       .  S
O4591      C4612   1.241       .  S
O4592      C4623   1.275       .  A
O4592     Mg4616   2.310       .  S
C4593      O4595   1.270       .  A
C4593      N4650   1.447       .  S
O4594      C4622   1.275       .  A
Mg4596     O4602   2.130       .  S
Mg4596     O4598   2.280       .  S
C4597      O4603   1.270       .  A
O4598      C4605   1.270       .  A
H4599      C4612   1.081       .  S
C4600      O4615   1.275       .  A
C4600      H4625   1.081       .  S
O4601      C4624   1.274       .  A
O4602     Mg4616   2.131       .  S
O4603     Mg4633   2.284       .  S
C4604      O4617   1.269       .  A
C4604      O4609   1.278       .  A
C4604      N4643   1.448       .  S
C4605      O4632   1.272       .  A
Mg4606     O4613   2.103   1_565  S
Mg4606     O4607   2.307       .  S
Mg4606     O4608   2.308   1_565  S
Mg4606     O4635   2.255       .  S
O4609     Mg4616   2.318       .  S
O4610      C4629   1.269       .  A
O4611      C4631   1.272       .  A
O4613      C4624   1.240   1_545  S
O4614     Mg4633   2.128       .  S
O4615     Mg4627   2.310       .  S
Mg4616     O4632   2.258       .  S
O4617     Mg4633   2.283       .  S
H4618      C4623   1.081       .  S
O4619     Mg4627   2.125       .  S
O4619      C4622   1.242       .  S
H4620      C4622   1.081       .  S
H4621      C4624   1.081       .  S
O4626     Mg4633   2.310       .  S
C4629      O4634   1.276       .  A
C4629      N4636   1.444       .  S
O4630      C4631   1.272   1_545  A
C4631      C4789   1.470       .  S
N4636      C4640   1.370       .  A
N4636      C4637   1.361       .  A
C4637      C4735   1.475       .  S
C4637      C4638   1.376       .  A
C4638      H4641   1.083       .  S
C4638      C4639   1.369       .  A
C4639      H4642   1.082       .  S
C4639      C4640   1.388       .  A
N4643      C4647   1.372       .  A
N4643      C4644   1.361       .  A
C4644      C4645   1.376       .  A
C4645      H4648   1.083       .  S
C4645      C4646   1.367       .  A
C4646      H4649   1.083       .  S
C4646      C4647   1.387       .  A
N4650      C4654   1.370       .  A
N4650      C4651   1.361       .  A
C4651      C4652   1.377       .  A
C4652      H4655   1.083   1_565  S
C4652      C4653   1.369       .  A
C4653      H4656   1.083       .  S
C4653      C4654   1.386       .  A
O4657     Mg4659   2.103       .  S
O4657     Mg4665   2.127       .  S
O4657      C4692   1.240       .  S
C4658      O4671   1.242       .  S
C4658      O4695   1.275       .  A
C4658      H4697   1.081       .  S
Mg4659     O4688   2.130       .  S
Mg4659     O4703   2.307       .  S
Mg4659     O4699   2.255       .  S
Mg4659     O4670   2.308       .  S
O4660     Mg4702   2.129       .  S
O4660     Mg4685   2.105       .  S
O4660      C4681   1.241       .  S
O4661      C4692   1.274       .  A
O4661     Mg4685   2.306       .  S
C4662      O4664   1.269       .  A
C4662      O4676   1.278       .  A
C4662      N4705   1.448       .  S
O4663      C4691   1.275       .  A
O4663     Mg4665   2.310       .  S
O4664     Mg4696   2.283       .  S
Mg4665     O4671   2.125       .  S
Mg4665     O4679   2.280       .  S
Mg4665     O4667   2.293       .  S
C4666      C4775   1.467       .  S
C4666      O4704   1.272       .  A
C4666      O4672   1.270       .  A
O4667      C4674   1.272       .  A
H4668      C4681   1.081       .  S
C4669      O4683   1.242       .  S
C4669      O4684   1.275       .  A
C4669      H4694   1.081       .  S
O4670      C4693   1.275       .  A
O4671     Mg4685   2.132       .  S
O4672     Mg4702   2.280       .  S
C4673      O4686   1.269       .  A
C4673      O4678   1.276       .  A
C4673      N4712   1.444       .  S
C4674      O4701   1.272       .  A
Mg4675     O4682   2.097       .  S
Mg4675     O4683   2.131       .  S
Mg4675     O4676   2.318       .  S
Mg4675     O4677   2.310       .  S
Mg4675     O4704   2.258       .  S
O4677      C4681   1.275       .  A
O4678     Mg4685   2.303       .  S
O4679      C4698   1.270       .  A
O4680      C4700   1.270       .  A
O4680     Mg4696   2.284       .  S
O4682     Mg4696   2.128       .  S
O4682      C4693   1.241       .  S
O4683     Mg4702   2.130       .  S
O4684     Mg4696   2.310       .  S
Mg4685     O4701   2.263       .  S
O4686     Mg4702   2.279       .  S
H4687      C4692   1.081       .  S
O4688     Mg4696   2.128       .  S
O4688      C4691   1.242       .  S
H4689      C4691   1.081       .  S
H4690      C4693   1.081       .  S
O4695     Mg4702   2.308       .  S
C4698      O4703   1.276       .  A
C4698      N4719   1.447       .  S
O4699      C4700   1.272       .  A
N4705      C4709   1.372       .  A
N4705      C4706   1.361       .  A
C4706      C4769   1.472       .  S
C4706      C4707   1.376       .  A
C4707      H4710   1.083       .  S
C4707      C4708   1.367       .  A
C4708      H4711   1.083       .  S
C4708      C4709   1.387       .  A
N4712      C4716   1.370       .  A
N4712      C4713   1.361       .  A
C4713      C4714   1.376       .  A
C4714      H4717   1.083       .  S
C4714      C4715   1.369       .  A
C4715      H4718   1.082       .  S
C4715      C4716   1.388       .  A
N4719      C4723   1.370       .  A
N4719      C4720   1.361       .  A
C4720      C4721   1.377       .  A
C4721      H4724   1.083       .  S
C4721      C4722   1.369       .  A
C4722      H4725   1.083       .  S
C4722      C4723   1.386       .  A
O4726     Mg4734   2.131       .  S
O4726      C4761   1.240       .  S
C4727      O4740   1.242       .  S
C4727      O4764   1.275       .  A
C4727      H4766   1.081       .  S
Mg4728     O4757   2.130       .  S
Mg4728     O4772   2.306       .  S
Mg4728     O4768   2.264       .  S
O4729     Mg4771   2.129       .  S
O4729     Mg4754   2.106       .  S
O4729      C4750   1.241       .  S
O4730      C4761   1.274       .  A
O4730     Mg4754   2.305       .  S
C4731      O4733   1.271       .  A
C4731      N4788   1.448       .  S
O4732      C4760   1.275       .  A
O4733     Mg4765   2.285       .  S
Mg4734     O4740   2.129       .  S
Mg4734     O4736   2.278       .  S
C4735      O4773   1.273       .  A
C4735      O4741   1.274       .  A
O4736      C4743   1.269       .  A
H4737      C4750   1.081       .  S
C4738      O4753   1.276       .  A
C4738      H4763   1.081       .  S
O4739      C4762   1.275       .  A
O4740     Mg4754   2.136       .  S
O4741     Mg4771   2.311       .  S
C4742      O4755   1.272       .  A
C4742      O4747   1.279       .  A
C4742      N4781   1.448       .  S
C4743      O4770   1.274       .  A
Mg4744     O4751   2.111       .  S
Mg4744     O4752   2.128       .  S
Mg4744     O4745   2.308       .  S
Mg4744     O4746   2.308       .  S
Mg4744     O4773   2.267       .  S
O4746      C4750   1.275       .  A
O4747     Mg4754   2.318       .  S
O4748      C4767   1.268       .  A
O4749      C4769   1.273       .  A
O4749     Mg4765   2.303       .  S
O4751      C4762   1.241       .  S
O4752     Mg4771   2.131       .  S
O4753     Mg4765   2.311       .  S
Mg4754     O4770   2.271       .  S
O4755     Mg4771   2.294       .  S
H4756      C4761   1.081       .  S
O4757     Mg4765   2.124       .  S
O4757      C4760   1.241       .  S
H4758      C4760   1.081       .  S
H4759      C4762   1.081       .  S
O4764     Mg4771   2.310       .  S
C4767      O4772   1.276       .  A
C4767      N4774   1.444       .  S
O4768      C4769   1.272       .  A
N4774      C4778   1.366       .  A
N4774      C4775   1.357       .  A
C4775      C4776   1.377       .  A
C4776      H4779   1.083       .  S
C4776      C4777   1.367       .  A
C4777      H4780   1.083       .  S
C4777      C4778   1.387       .  A
N4781      C4785   1.369       .  A
N4781      C4782   1.357       .  A
C4782      C4783   1.375       .  A
C4783      H4786   1.083       .  S
C4783      C4784   1.363       .  A
C4784      H4787   1.083       .  S
C4784      C4785   1.387       .  A
C4785      C4799   1.476       .  S
N4788      C4792   1.369       .  A
N4788      C4789   1.360       .  A
C4789      C4790   1.377       .  A
C4790      H4793   1.083       .  S
C4790      C4791   1.366       .  A
C4791      H4794   1.083       .  S
C4791      C4792   1.386       .  A
C4795      N4796   1.363       .  A
C4795      N4800   1.352       .  A
N4796      C4797   1.354       .  A
C4797      N4798   1.362       .  A
N4798      C4799   1.354       .  A
C4799      N4800   1.362       .  A
