geometry optimzed in LAMMPS
_audit_creation_date              2020-11-30 
_audit_creation_method            'lammps2cif' 
_symmetry_space_group_name_H-M    'P1' 
_symmetry_Int_Tables_number       1 
_symmetry_cell_setting            triclinic 
loop_ 
_symmetry_equiv_pos_as_xyz 
  x,y,z 
_cell_length_a                    19.09210788 
_cell_length_b                    28.048712790273786 
_cell_length_c                    25.33062993799947 
_cell_angle_alpha                 89.83747890103017 
_cell_angle_beta                  86.72075506537523 
_cell_angle_gamma                 92.76878408358947 
loop_ 
_atom_site_label 
_atom_site_type_symbol 
_atom_site_fract_x 
_atom_site_fract_y 
_atom_site_fract_z 
_atom_site_charge 
C1          C  0.10648420  0.99238997  0.28174640     0.30700
C2          C  0.44989483  0.99236090  0.28317772     0.30700
C3          C  0.06109777  0.96132741  0.32431104    -0.05500
C4          C  0.07018656  0.04017768  0.29324605    -0.06300
C5          C  0.06691215  0.97818732  0.23104456    -0.06200
C6          C  0.48516398  0.95978782  0.32559329    -0.05500
C7          C  0.49225585  0.03933651  0.29532543    -0.06300
C8          C  0.49364551  0.97986610  0.23241814    -0.06200
C9          C  0.46392435  0.95192311  0.37901284    -0.31600
N10         N  0.01899319  0.95039640  0.40909424     0.14900
C11         C  0.07757799  0.95230536  0.37604149    -0.31600
H12         H  0.13005580  0.95276110  0.38950785     0.16900
C13         C  0.47482031  0.08572065  0.29996586    -0.30600
N14         N  0.53440153  0.11337824  0.30524769     0.13600
C15         C  0.09586240  0.08594527  0.29918365    -0.30600
C16         C  0.47395303  0.95433911  0.18975503    -0.30900
N17         N  0.53028504  0.93302546  0.16823747     0.14100
H18         H  0.42079058  0.94544582  0.17990864     0.16800
C19         C  0.08354955  0.94955218  0.18843972    -0.30900
H20         H  0.13461751  0.93701578  0.17713571     0.16800
H21         H  0.15089135  0.09739931  0.29811154     0.16800
H22         H  0.41073885  0.95387246  0.39517025     0.16800
H23         H  0.42331484  0.09873484  0.29440745     0.16800
C24         C  0.19980891  0.99216068  0.27957695     0.30700
C25         C  0.35700760  0.99216752  0.27787280     0.30700
C26         C  0.23943987  0.00926566  0.32928717    -0.05500
C27         C  0.23731800  0.94380229  0.26865494    -0.06300
C28         C  0.24457518  0.02441485  0.23784003    -0.06200
C29         C  0.31479159  0.00923397  0.32799620    -0.05500
C30         C  0.31321263  0.94330807  0.26768213    -0.06300
C31         C  0.32055421  0.02498965  0.23646445    -0.06200
C32         C  0.33474804  0.02630713  0.37594619    -0.31600
N33         N  0.27676968  0.03349356  0.40772341     0.14900
C34         C  0.21918859  0.02603616  0.37877922    -0.31600
H35         H  0.16573448  0.02997660  0.39384960     0.16900
C36         C  0.32956779  0.90005682  0.24280253    -0.30600
N37         N  0.27010664  0.87592223  0.22770316     0.13600
C38         C  0.21478603  0.90141238  0.24517043    -0.30600
C39         C  0.34273834  0.06004726  0.19871643    -0.30900
N40         N  0.28595732  0.08086299  0.17836261     0.14100
H41         H  0.39708430  0.06914960  0.18722734     0.16800
C42         C  0.22702074  0.05879280  0.20232679    -0.30900
H43         H  0.17383500  0.06821240  0.19615271     0.16800
H44         H  0.16136467  0.89038138  0.23912950     0.16800
H45         H  0.38791530  0.03077387  0.38809848     0.16800
H46         H  0.38164889  0.88791569  0.23376058     0.16800
C47         C  0.09503399  0.00002462  0.59291083     0.30700
C48         C  0.93814679  0.99882309  0.59549115     0.30700
C49         C  0.05721600  0.99855520  0.53847451    -0.05500
C50         C  0.05125420  0.95542566  0.61674632    -0.06300
C51         C  0.05482242  0.04031484  0.62389878    -0.06200
C52         C  0.98067914  0.99799921  0.54011807    -0.05500
C53         C  0.97504418  0.95451468  0.61896359    -0.06300
C54         C  0.97969204  0.03953837  0.62578073    -0.07600
C55         C  0.96209288  0.97171742  0.49546411    -0.31600
N56         N  0.01871807  0.96177584  0.46418316     0.14900
C57         C  0.07528245  0.97274452  0.49228650    -0.31600
H58         H  0.12498823  0.95746320  0.48255232     0.16900
C59         C  0.95379165  0.90764524  0.63299022    -0.30600
N60         N  0.01059859  0.88199378  0.64079624     0.13600
C61         C  0.06823892  0.90889775  0.62463790    -0.30600
C62         C  0.96051654  0.06960551  0.66804841    -0.30900
N63         N  0.01823043  0.09088456  0.68958499     0.14100
H64         H  0.40593408  0.07815620  0.67883588     0.16800
C65         C  0.07505935  0.07227969  0.66317573    -0.30900
H66         H  0.12843755  0.08025141  0.67260296     0.16800
H67         H  0.11926341  0.89454219  0.61819311     0.16800
H68         H  0.41194058  0.95406983  0.48922973     0.16800
H69         H  0.40198103  0.88923211  0.63429191     0.16800
C70         C  0.18892531  0.00301720  0.59403032     0.30700
C71         C  0.34509981  0.00309399  0.59384895     0.30700
C72         C  0.23150860  0.99629608  0.54040400    -0.05500
C73         C  0.23106916  0.05075227  0.60848480    -0.06300
C74         C  0.22525698  0.96792406  0.63124591    -0.06200
C75         C  0.30822964  0.99639408  0.53976937    -0.05500
C76         C  0.30799082  0.05039656  0.60939916    -0.06300
C77         C  0.29993475  0.96907995  0.63105043    -0.06200
C78         C  0.33011986  0.01943592  0.49203556    -0.31600
N79         N  0.27525415  0.02902621  0.46345530     0.14900
C80         C  0.21706524  0.01970932  0.49412484    -0.31600
H81         H  0.16906289  0.03644035  0.48653308     0.16900
C82         C  0.33227289  0.09559954  0.59396388    -0.30600
N83         N  0.27863651  0.12359698  0.58381455     0.13600
C84         C  0.21827947  0.09603020  0.59039507    -0.30600
C85         C  0.31642336  0.94411621  0.67493224    -0.30900
N86         N  0.25888325  0.92047747  0.69660180     0.14100
H87         H  0.36684698  0.94412212  0.69172327     0.16800
C88         C  0.20324823  0.93894252  0.67429970    -0.30900
H89         H  0.15080032  0.93295240  0.69083497     0.16800
H90         H  0.16881192  0.10480094  0.57543755     0.16800
H91         H  0.38195496  0.03467407  0.48158163     0.16800
H92         H  0.38708741  0.10546707  0.58576578     0.16800
O93         O  0.38529429  0.50036313  0.99897687    -0.80200
O94         O  0.15433134  0.50902431  0.93678179    -0.64900
O95         O  0.51323285  0.50963431  0.97008440    -1.11500
C96         C  0.06987150  0.39728102  0.09465985     1.06700
O97         O  0.14652264  0.43432904  0.92582404    -0.78100
O98         O  0.09681427  0.36431189  0.99030918    -0.65700
Ni99       Ni  0.43617781  0.54825521  0.96259301     1.34900
C100        C  0.04920662  0.36692538  0.95849744     0.85400
O101        O  0.09577911  0.59674066  0.93586386    -0.78700
O102        O  0.48293530  0.59498452  0.91750097    -0.88900
C103        C  0.13639117  0.47523594  0.90849608     0.85000
O104        O  0.44474067  0.58863671  0.02185613    -0.67200
O105        O  0.13334050  0.40666288  0.07558372    -0.86400
C106        C  0.00421393  0.60146932  0.03603656     0.85800
C107        C  0.05212862  0.60898572  0.90124697     1.07400
H108        H  0.10387937  0.48647474  0.06037818     0.39200
O109        O  0.09854743  0.47837950  0.02372118    -1.09100
O110        O  0.52282765  0.40734829  0.95882563    -0.65800
Ni111      Ni  0.50547979  0.45343287  0.01836402     1.26300
O112        O  0.05158309  0.57201755  0.04088443    -0.66000
O113        O  0.51049374  0.40465923  0.07143789    -0.78300
C114        C  0.39421759  0.46126854  0.97512308     0.85200
O115        O  0.41420328  0.42949932  0.00375981    -0.65400
Ni116      Ni  0.15052664  0.42298311  0.00226908     1.27400
Ni117      Ni  0.09931881  0.53928466  0.98439612     1.26100
H118        H  0.52209461  0.49972471  0.93465043     0.39700
O119        O  0.42268191  0.49655931  0.88679703    -0.80200
O120        O  0.14028305  0.52990889  0.84132743    -0.64900
O121        O  0.29859530  0.49791158  0.91018623    -1.11500
C122        C  0.28021575  0.38129883  0.77426599     1.06700
O123        O  0.11194188  0.45671821  0.81858157    -0.78100
O124        O  0.21239219  0.35399729  0.87375476    -0.65700
Ni125      Ni  0.37166939  0.54198470  0.92045527     1.34900
C126        C  0.24690454  0.35932304  0.91462224     0.85400
O127        O  0.22204680  0.58307922  0.91967417    -0.78700
O128        O  0.31955035  0.58289805  0.96402914    -0.88900
C129        C  0.11677827  0.48837330  0.85426163     0.85000
O130        O  0.36515499  0.58520131  0.86112079    -0.67200
O131        O  0.21448542  0.39084751  0.77741403    -0.86400
C132        C  0.32177119  0.58682566  0.82505360     0.85800
C133        C  0.26067926  0.59925278  0.95754676     1.07400
H134        H  0.24803487  0.46857166  0.80064819     0.39200
O135        O  0.23748591  0.45948408  0.83721280    -1.09100
O136        O  0.27568358  0.40006532  0.92175996    -0.65800
Ni137      Ni  0.31663301  0.44077523  0.86428308     1.26300
O138        O  0.27696128  0.55331812  0.81867528    -0.66000
O139        O  0.32239898  0.38966950  0.81197402    -0.78300
C140        C  0.41547825  0.45920379  0.91617953     0.85200
O141        O  0.40041103  0.42192046  0.89278784    -0.65400
Ni142      Ni  0.16574399  0.40713235  0.84281325     1.27400
Ni143      Ni  0.22581671  0.52086856  0.87564193     1.26100
H144        H  0.27833859  0.48743853  0.94431209     0.39700
C145        C  0.23829285  0.78619835  0.69871589    -0.01400
C146        C  0.28415355  0.77432571  0.73781510     0.07200
C147        C  0.31889864  0.81131733  0.76479620    -0.07300
C148        C  0.30793860  0.85938841  0.75408701     0.04700
C149        C  0.26150711  0.87169641  0.71539170    -0.14600
C150        C  0.22715426  0.83439083  0.68801833    -0.07900
C151        C  0.28990677  0.72430221  0.75673226     0.05600
C152        C  0.32339917  0.68969010  0.72519252    -0.09000
C153        C  0.33386892  0.64380541  0.74582810     0.00600
C154        C  0.31209609  0.63297174  0.79863296     0.00500
C155        C  0.27311196  0.66602435  0.82765443    -0.12600
C156        C  0.26284764  0.71134248  0.80784836     0.00900
C157        C  0.36452556  0.60786009  0.71246154     0.40300
C158        C  0.22332005  0.74384107  0.84066442     0.36900
C159        C  0.20268511  0.74961569  0.66883187     0.36600
C160        C  0.34404787  0.89548753  0.78410010     0.37400
N161        N  0.38831913  0.57840782  0.68609557    -0.43400
N162        N  0.19156159  0.76990231  0.86677254    -0.43900
N163        N  0.37315394  0.92429972  0.80837163    -0.41200
N164        N  0.17473201  0.72025308  0.64454310    -0.42700
H165        H  0.19350741  0.84285481  0.65672837     0.13500
H166        H  0.35382442  0.80243442  0.79522394     0.10000
H167        H  0.34175897  0.69863894  0.68495824     0.11000
H168        H  0.25039547  0.65659921  0.86650337     0.16900
C169        C  0.34736751  0.28593106  0.68466581    -0.01400
C170        C  0.33484094  0.30458201  0.63429947     0.07200
C171        C  0.31551752  0.35194163  0.62994800    -0.07300
C172        C  0.30294929  0.37924445  0.67546648     0.04700
C173        C  0.30735428  0.35828446  0.72587100    -0.14600
C174        C  0.33223641  0.31254382  0.72995652    -0.07900
C175        C  0.32012239  0.27068197  0.59139685     0.05600
C176        C  0.24991124  0.25451083  0.59000131    -0.09000
C177        C  0.23256375  0.20635804  0.58129572     0.00600
C178        C  0.28705224  0.17423990  0.57069441     0.00500
C179        C  0.35527896  0.19449996  0.55749638    -0.12600
C180        C  0.37253485  0.24223339  0.56927523     0.00900
C181        C  0.15930251  0.19186391  0.58961316     0.40300
C182        C  0.44511726  0.25952736  0.56515243     0.36900
C183        C  0.36883802  0.23768657  0.69125837     0.36600
C184        C  0.28503509  0.42834330  0.66965728     0.37400
N185        N  0.09994883  0.18178871  0.59642062    -0.43400
N186        N  0.50321624  0.27356482  0.56181208    -0.43900
N187        N  0.27184294  0.46790376  0.66479161    -0.41200
N188        N  0.38599297  0.19900032  0.69612141    -0.42700
H189        H  0.33662051  0.29668484  0.76868831     0.13500
H190        H  0.30603673  0.36644814  0.59141488     0.10000
H191        H  0.20908043  0.27753406  0.60466917     0.11000
H192        H  0.39717163  0.17236415  0.54343751     0.16900
C193        C  0.01101777  0.75941951  0.70149724    -0.01400
C194        C  0.03317122  0.76964823  0.75320683     0.07200
C195        C  0.04457658  0.81790559  0.76670812    -0.07300
C196        C  0.03219010  0.85477626  0.73142877     0.04700
C197        C  0.01296633  0.84427844  0.67952639    -0.14600
C198        C  0.00196886  0.79654768  0.66527544    -0.07900
C199        C  0.04477947  0.73103046  0.79335934     0.05600
C200        C  0.08431111  0.69210392  0.77835555    -0.09000
C201        C  0.09170471  0.65302150  0.81227131     0.00600
C202        C  0.06230400  0.65271824  0.86537851     0.00500
C203        C  0.02379525  0.69284762  0.88049448    -0.12600
C204        C  0.01639758  0.73183368  0.84609812     0.00900
C205        C  0.12617782  0.61408979  0.78714389     0.40300
C206        C  0.97718050  0.77160536  0.86531704     0.36900
C207        C  0.49799053  0.70893018  0.68318296     0.36600
C208        C  0.03829317  0.90339637  0.74974676     0.37400
N209        N  0.15441669  0.58665132  0.76050313    -0.43400
N210        N  0.43940008  0.80044309  0.88061403    -0.43900
N211        N  0.04296033  0.94233656  0.76464076    -0.41200
N212        N  0.48968948  0.67086391  0.66649216    -0.42700
H213        H  0.98719135  0.78832061  0.62550668     0.13500
H214        H  0.06349878  0.82711299  0.80506367     0.10000
H215        H  0.10857702  0.69149449  0.73869464     0.11000
H216        H  0.99692766  0.69308826  0.91933632     0.16900
C217        C  0.96268603  0.19507158  0.77852395    -0.01400
C218        C  0.02061034  0.20338565  0.81042262     0.07200
C219        C  0.07494984  0.17123444  0.80498180    -0.07300
C220        C  0.07384575  0.13326484  0.76783351     0.04700
C221        C  0.01849588  0.12707241  0.73239229    -0.14600
C222        C  0.96251121  0.15829999  0.73983068    -0.07900
C223        C  0.02571631  0.24569224  0.84854652     0.05600
C224        C  0.01319651  0.23929373  0.90367940    -0.09000
C225        C  0.01901756  0.27810230  0.93955321     0.00600
C226        C  0.03478405  0.32548360  0.92110401     0.00500
C227        C  0.51964317  0.33510627  0.87098949    -0.12600
C228        C  0.51542606  0.29884037  0.83183744     0.00900
C229        C  0.00852860  0.26852328  0.99551938     0.40300
C230        C  0.49916165  0.31370245  0.77965769     0.36900
C231        C  0.90145741  0.22303821  0.78630692     0.36600
C232        C  0.12854782  0.09974892  0.76984564     0.37400
N233        N  0.00061056  0.26119968  0.04050023    -0.43400
N234        N  0.48846849  0.32686828  0.73769020    -0.43900
N235        N  0.17244280  0.07285171  0.77191124    -0.41200
N236        N  0.85216384  0.24512885  0.79341095    -0.42700
H237        H  0.91824523  0.15439568  0.71501147     0.13500
H238        H  0.11872221  0.17563345  0.83028804     0.10000
H239        H  0.99987280  0.20367071  0.91896250     0.11000
H240        H  0.51005778  0.37152106  0.86018517     0.16900
C241        C  0.21120634  0.67157218  0.08448913    -0.01400
C242        C  0.24912515  0.71617266  0.07530928     0.07200
C243        C  0.28714506  0.72114864  0.02615790    -0.07300
C244        C  0.28704281  0.68471070  0.98755371     0.04700
C245        C  0.24599452  0.64138241  0.99447427    -0.14600
C246        C  0.21057868  0.63497619  0.04497144    -0.07900
C247        C  0.25214558  0.75755688  0.11565247     0.05600
C248        C  0.27135812  0.75033967  0.16827609    -0.09000
C249        C  0.27838533  0.78872574  0.20483446     0.00600
C250        C  0.26580785  0.83597946  0.19022478     0.00500
C251        C  0.24514103  0.84333770  0.13838411    -0.12600
C252        C  0.23883715  0.80537047  0.10158666     0.00900
C253        C  0.29656793  0.77935713  0.25816135     0.40300
C254        C  0.21651999  0.81647826  0.04967617     0.36900
C255        C  0.17216665  0.66248555  0.13420589     0.36600
C256        C  0.33494405  0.69079126  0.94226538     0.37400
N257        N  0.31123957  0.77287971  0.30121304    -0.43400
N258        N  0.19888821  0.82528249  0.00793722    -0.43900
N259        N  0.37334602  0.69385383  0.90551196    -0.41200
N260        N  0.14116823  0.65544732  0.17429855    -0.42700
H261        H  0.18360342  0.60087621  0.05420056     0.13500
H262        H  0.31972184  0.75333504  0.01841613     0.10000
H263        H  0.28150415  0.71456994  0.18090231     0.11000
H264        H  0.23388359  0.87919365  0.12648914     0.16900
C265        C  0.21933992  0.16059608  0.07094408    -0.01400
C266        C  0.27351358  0.19651835  0.06245045     0.07200
C267        C  0.33220294  0.19391014  0.09367500    -0.07300
C268        C  0.33794993  0.15683146  0.13140651     0.04700
C269        C  0.28464810  0.11964790  0.13861906    -0.14600
C270        C  0.22580140  0.12281139  0.10730301    -0.07900
C271        C  0.26776124  0.23806890  0.02372789     0.05600
C272        C  0.27227263  0.28550024  0.04182827    -0.09000
C273        C  0.26640432  0.32507597  0.00772324     0.00600
C274        C  0.25362295  0.31839059  0.95338328     0.00500
C275        C  0.24859885  0.27091411  0.93535039    -0.12600
C276        C  0.25691650  0.23148519  0.96916166     0.00900
C277        C  0.27254614  0.37196922  0.03063814     0.40300
C278        C  0.25710738  0.18463137  0.94593686     0.36900
C279        C  0.15424419  0.16326448  0.04500447     0.36600
C280        C  0.39771231  0.15989649  0.16368725     0.37400
N281        N  0.27768520  0.40906425  0.05031722    -0.43400
N282        N  0.25726463  0.14720329  0.92686136    -0.43900
N283        N  0.44602978  0.16295154  0.18925186    -0.41200
N284        N  0.10219647  0.16582835  0.02412320    -0.42700
H285        H  0.18345568  0.09575084  0.11143697     0.13500
H286        H  0.37385343  0.22142070  0.08905564     0.10000
H287        H  0.28081670  0.29189106  0.08318049     0.11000
H288        H  0.24009875  0.26443728  0.89396419     0.16900
C289        C  0.45698327  0.69871579  0.14204145    -0.01400
C290        C  0.99297299  0.73766855  0.10887916     0.07200
C291        C  0.03710083  0.73162475  0.06413231    -0.07300
C292        C  0.04432443  0.68727874  0.04166343     0.04700
C293        C  0.00739843  0.64673384  0.06457282    -0.14600
C294        C  0.45997352  0.65265076  0.12082616    -0.07900
C295        C  0.98655114  0.78741190  0.12680931     0.05600
C296        C  0.00780683  0.79945398  0.17689798    -0.09000
C297        C  0.01799437  0.84698351  0.19096692     0.00600
C298        C  0.01279409  0.88365838  0.15296858     0.00500
C299        C  0.49993018  0.87254338  0.10444142    -0.12600
C300        C  0.48146155  0.82541185  0.09210226     0.00900
C301        C  0.02993529  0.85630826  0.24563057     0.40300
C302        C  0.45623066  0.81626017  0.04032402     0.36900
C303        C  0.42499069  0.70326722  0.19443849     0.36600
C304        C  0.09075277  0.68689326  0.99515301     0.37400
N305        N  0.03844118  0.86108252  0.29016444    -0.43400
N306        N  0.43679598  0.80989874  0.99840882    -0.43900
N307        N  0.13029436  0.69228589  0.95909870    -0.41200
N308        N  0.40213496  0.70501983  0.23760970    -0.42700
H309        H  0.43196246  0.62267747  0.14097841     0.13500
H310        H  0.06611598  0.76235909  0.04610225     0.10000
H311        H  0.01871607  0.77175469  0.20477082     0.11000
H312        H  0.49507539  0.90082788  0.07579077     0.16900
C313        C  0.10572232  0.22955154  0.23564935    -0.01400
C314        C  0.06099375  0.26274401  0.25983702     0.07200
C315        C  0.48864722  0.24133391  0.29947890    -0.07300
C316        C  0.48832931  0.19410132  0.31726162     0.04700
C317        C  0.05095318  0.16614089  0.29148927    -0.14600
C318        C  0.10119800  0.18220158  0.25215541    -0.07900
C319        C  0.05454032  0.30959279  0.23390241     0.05600
C320        C  0.99462501  0.31523718  0.20571459    -0.09000
C321        C  0.99610194  0.34701421  0.16308855     0.00600
C322        C  0.05960871  0.37252072  0.14681644     0.00500
C323        C  0.58942872  0.37169456  0.18983945    -0.12600
C324        C  0.58112159  0.34029250  0.23286341     0.00900
C325        C  0.93252269  0.35024134  0.13560101     0.40300
C326        C  0.63048675  0.34369625  0.27395086     0.36900
C327        C  0.15056788  0.24167780  0.18932488     0.36600
C328        C  0.43301582  0.17686525  0.35477890     0.37400
N329        N  0.88098582  0.35314299  0.11425431    -0.43400
N330        N  0.67005749  0.34587717  0.30689958    -0.43900
N331        N  0.38822456  0.16250189  0.38417177    -0.41200
N332        N  0.18557915  0.25166326  0.15183548    -0.42700
H333        H  0.13354124  0.15680495  0.23126020     0.13500
H334        H  0.44737797  0.26422730  0.31341897     0.10000
H335        H  0.94846886  0.29170291  0.21398458     0.11000
H336        H  0.63123268  0.39932944  0.18863529     0.16900
C337        C  0.60672128  0.99295881  0.28367415     0.30700
C338        C  0.94972181  0.99487886  0.28281318     0.30700
C339        C  0.56216975  0.96005199  0.32503564    -0.05500
C340        C  0.56797288  0.03941770  0.29636796    -0.06300
C341        C  0.56907415  0.97933331  0.23240221    -0.06200
C342        C  0.98437943  0.96233821  0.32527254    -0.05500
C343        C  0.99447379  0.04190108  0.29312931    -0.06300
C344        C  0.99161913  0.98033775  0.23198472    -0.06200
C345        C  0.96294894  0.95444957  0.37851942    -0.31600
N346        N  0.52007417  0.94869542  0.40977410     0.14900
C347        C  0.57868346  0.95127410  0.37681434    -0.31600
H348        H  0.63114416  0.95291644  0.39040279     0.16900
C349        C  0.98017293  0.08939528  0.29731446    -0.30600
N350        N  0.04169655  0.11563960  0.30086490     0.13600
C351        C  0.59068608  0.08547148  0.30384405    -0.30600
C352        C  0.96930685  0.95549350  0.18946610    -0.30900
N353        N  0.02371161  0.93274639  0.16697446     0.14100
H354        H  0.91541419  0.94813216  0.18039264     0.16800
C355        C  0.58857550  0.95127017  0.19025671    -0.30900
H356        H  0.64058579  0.93993787  0.17988680     0.16800
H357        H  0.64506505  0.09837494  0.30361637     0.16800
H358        H  0.90986372  0.95663689  0.39474618     0.16800
H359        H  0.92932169  0.10406469  0.29336797     0.16800
C360        C  0.69985803  0.99415969  0.28104419     0.30700
C361        C  0.85679215  0.99433277  0.27867677     0.30700
C362        C  0.73949018  0.01202788  0.33024181    -0.05500
C363        C  0.73706503  0.94575073  0.27147415    -0.06300
C364        C  0.74442349  0.02575919  0.23811749    -0.06200
C365        C  0.81485320  0.01231872  0.32872799    -0.05500
C366        C  0.81284553  0.94513316  0.26964987    -0.06300
C367        C  0.82035319  0.02610220  0.23666393    -0.06200
C368        C  0.83451384  0.02897212  0.37701600    -0.31600
N369        N  0.77630559  0.03533447  0.40900951     0.14900
C370        C  0.71884316  0.02775172  0.38002728    -0.31600
H371        H  0.66522647  0.03051747  0.39530161     0.16900
C372        C  0.82794069  0.90136957  0.24507049    -0.30600
N373        N  0.76758000  0.87708357  0.23170459     0.13600
C374        C  0.71327893  0.90301302  0.24986961    -0.30600
C375        C  0.84333652  0.05891394  0.19690915    -0.30900
N376        N  0.78716944  0.07899345  0.17507857     0.14100
H377        H  0.89782836  0.06684107  0.18478745     0.16800
C378        C  0.72760469  0.05853173  0.20018043    -0.30900
H379        H  0.67470630  0.06780541  0.19267581     0.16800
H380        H  0.65954777  0.89244587  0.24474317     0.16800
H381        H  0.88765007  0.03346485  0.38925249     0.16800
H382        H  0.87963937  0.88914095  0.23473787     0.16800
C383        C  0.59480698  0.99872278  0.59427517     0.30700
C384        C  0.43797925  0.99807409  0.59541493     0.30700
C385        C  0.55755191  0.99715628  0.53943932    -0.05500
C386        C  0.55081252  0.95428437  0.61812999    -0.06300
C387        C  0.55441679  0.03896102  0.62519777    -0.06200
C388        C  0.48109758  0.99691579  0.54045500    -0.05500
C389        C  0.47461994  0.95315977  0.61923081    -0.06300
C390        C  0.47932890  0.03883560  0.62562815    -0.07600
C391        C  0.46279547  0.97045780  0.49585734    -0.31600
N392        N  0.51957153  0.96028334  0.46487022     0.14900
C393        C  0.57597505  0.97126391  0.49329612    -0.31600
H394        H  0.62601466  0.95636025  0.48365089     0.16900
C395        C  0.45415842  0.90581859  0.63322898    -0.30600
N396        N  0.51105680  0.88090524  0.64357604     0.13600
C397        C  0.56869238  0.90843713  0.62892428    -0.30600
C398        C  0.45912931  0.07155189  0.66502695    -0.30900
N399        N  0.51657061  0.09298386  0.68629442     0.14100
H400        H  0.90749053  0.07340618  0.68420907     0.16800
C401        C  0.57364369  0.07155534  0.66433735    -0.30900
H402        H  0.62543787  0.07732540  0.67863788     0.16800
H403        H  0.62029850  0.89490466  0.62492938     0.16800
H404        H  0.91121548  0.95531196  0.48892690     0.16800
H405        H  0.90118411  0.89176787  0.63559726     0.16800
C406        C  0.68862986  0.00183998  0.59516645     0.30700
C407        C  0.84514975  0.00227158  0.59453853     0.30700
C408        C  0.73137259  0.99673812  0.54128837    -0.05500
C409        C  0.73052171  0.04847984  0.61179709    -0.06300
C410        C  0.72497321  0.96624788  0.63125730    -0.06200
C411        C  0.80805718  0.99711087  0.54046736    -0.05500
C412        C  0.80771702  0.04850904  0.61193928    -0.06300
C413        C  0.80014188  0.96687539  0.63083813    -0.06200
C414        C  0.82969085  0.02094708  0.49320431    -0.31600
N415        N  0.77469585  0.03044210  0.46472941     0.14900
C416        C  0.71652439  0.02054016  0.49536719    -0.31600
H417        H  0.66798385  0.03656527  0.48776335     0.16900
C418        C  0.83136955  0.09478154  0.60132866    -0.30600
N419        N  0.77612175  0.12199907  0.59653768     0.13600
C420        C  0.71613396  0.09473191  0.60006877    -0.30600
C421        C  0.81565011  0.94610650  0.67790430    -0.30900
N422        N  0.75705755  0.92660660  0.70292247     0.14100
H423        H  0.86632550  0.94631583  0.69458853     0.16800
C424        C  0.70238890  0.94389361  0.67847834    -0.30900
H425        H  0.64957422  0.94119211  0.69552122     0.16800
H426        H  0.66562084  0.10769058  0.59141372     0.16800
H427        H  0.88142058  0.03641220  0.48286991     0.16800
H428        H  0.88536214  0.10771055  0.59428508     0.16800
O429        O  0.89113675  0.50558230  0.99443266    -0.80200
O430        O  0.65355160  0.50647237  0.94843302    -0.64900
O431        O  0.01716245  0.50897367  0.96202112    -1.11500
C432        C  0.56285957  0.39403456  0.09855234     1.06700
O433        O  0.64714591  0.43350404  0.93421755    -0.78100
O434        O  0.59538542  0.36383906  0.99598847    -0.65700
Ni435      Ni  0.94293775  0.54824303  0.95101328     1.34900
C436        C  0.55016944  0.36670626  0.96219735     0.85400
O437        O  0.59387274  0.59379945  0.93967560    -0.78700
O438        O  0.99238430  0.58826404  0.89977443    -0.88900
C439        C  0.63413729  0.47430749  0.91916495     0.85000
O440        O  0.95668344  0.59545374  0.00374598    -0.67200
O441        O  0.62737819  0.40494211  0.08337062    -0.86400
C442        C  0.49774097  0.59899931  0.04785208     0.85800
C443        C  0.54604030  0.60975969  0.91072667     1.07400
H444        H  0.59737875  0.48577318  0.06892951     0.39200
O445        O  0.59425713  0.47808389  0.03194463    -1.09100
O446        O  0.02210446  0.40747812  0.95497980    -0.65800
Ni447      Ni  0.00863246  0.45479656  0.01343710     1.26300
O448        O  0.55190505  0.57484674  0.04655756    -0.66000
O449        O  0.01540155  0.40694842  0.06887120    -0.78300
C450        C  0.89575737  0.46492116  0.97289037     0.85200
O451        O  0.91489462  0.43329083  0.00243081    -0.65400
Ni452      Ni  0.64778776  0.42236108  0.01084917     1.27400
Ni453      Ni  0.59671751  0.53901883  0.99177603     1.26100
H454        H  0.02525644  0.49711310  0.92739325     0.39700
O455        O  0.91947936  0.49681080  0.88255829    -0.80200
O456        O  0.62957140  0.53160451  0.85594886    -0.64900
O457        O  0.79744792  0.50149391  0.91215733    -1.11500
C458        C  0.76731323  0.38947901  0.77447449     1.06700
O459        O  0.60123143  0.45924738  0.83038992    -0.78100
O460        O  0.70785954  0.35553392  0.87469404    -0.65700
Ni461      Ni  0.87311901  0.54645784  0.91349772     1.34900
C462        C  0.74517810  0.35946308  0.91412927     0.85400
O463        O  0.71800124  0.58255436  0.93052239    -0.78700
O464        O  0.82818892  0.59370321  0.95394468    -0.88900
C465        C  0.60916884  0.48924523  0.86726003     0.85000
O466        O  0.86353196  0.58344108  0.84999945    -0.67200
O467        O  0.70123148  0.39672896  0.78227780    -0.86400
C468        C  0.80958383  0.58948430  0.82411549     0.85800
C469        C  0.76485834  0.60418423  0.95859065     1.07400
H470        H  0.73668438  0.47366980  0.80609777     0.39200
O471        O  0.72896676  0.46305499  0.84242817    -1.09100
O472        O  0.77258289  0.40061446  0.92271988    -0.65800
Ni473      Ni  0.81025288  0.44368920  0.86567729     1.26300
O474        O  0.75801169  0.55979378  0.82565022    -0.66000
O475        O  0.81189207  0.39455006  0.81123054    -0.78300
C476        C  0.91304456  0.46050656  0.91347071     0.85200
O477        O  0.89503577  0.42298426  0.89167158    -0.65400
Ni478      Ni  0.65782107  0.40963638  0.84974041     1.27400
Ni479      Ni  0.71909116  0.52293051  0.88394288     1.26100
H480        H  0.78155140  0.49184369  0.94760873     0.39700
C481        C  0.73220215  0.79347683  0.70892852    -0.01400
C482        C  0.77305763  0.78188756  0.75116301     0.07200
C483        C  0.80491405  0.81901546  0.77998854    -0.07300
C484        C  0.79762312  0.86709428  0.76645075     0.04700
C485        C  0.75624197  0.87874192  0.72433905    -0.14600
C486        C  0.72385283  0.84129999  0.69623688    -0.07900
C487        C  0.78016603  0.73143432  0.76760287     0.05600
C488        C  0.81633391  0.69948254  0.73422999    -0.09000
C489        C  0.82495109  0.65206539  0.75045249     0.00600
C490        C  0.79887712  0.63687755  0.80097766     0.00500
C491        C  0.75771697  0.66760137  0.83186746    -0.12600
C492        C  0.74897447  0.71456762  0.81614339     0.00900
C493        C  0.85529405  0.61859854  0.71380644     0.40300
C494        C  0.70771886  0.74485640  0.85051895     0.36900
C495        C  0.69961205  0.75699526  0.67712951     0.36600
C496        C  0.83434653  0.90383457  0.79524997     0.37400
N497        N  0.87802116  0.59118115  0.68423598    -0.43400
N498        N  0.67492306  0.76931456  0.87793539    -0.43900
N499        N  0.86428245  0.93329504  0.81809300    -0.41200
N500        N  0.67404486  0.72793356  0.65110274    -0.42700
H501        H  0.69511189  0.84925088  0.66210472     0.13500
H502        H  0.83633280  0.81029868  0.81265051     0.10000
H503        H  0.83744046  0.71153903  0.69558555     0.11000
H504        H  0.73329897  0.65528807  0.86932183     0.16900
C505        C  0.86669631  0.32176367  0.67029326    -0.01400
C506        C  0.81592360  0.31857971  0.63209916     0.07200
C507        C  0.76361001  0.35166645  0.63233855    -0.07300
C508        C  0.75133235  0.37983643  0.67682008     0.04700
C509        C  0.79190972  0.37392598  0.72139969    -0.14600
C510        C  0.85358587  0.34874443  0.71562079    -0.07900
C511        C  0.79557645  0.27045478  0.61496146     0.05600
C512        C  0.75898992  0.24184313  0.65382653    -0.09000
C513        C  0.75409169  0.19287721  0.64833026     0.00600
C514        C  0.77927948  0.17236421  0.60095541     0.00500
C515        C  0.81321544  0.20084188  0.56072977    -0.12600
C516        C  0.82289793  0.25011089  0.56802725     0.00900
C517        C  0.73174095  0.16398297  0.69413608     0.40300
C518        C  0.86431146  0.27853996  0.52912034     0.36900
C519        C  0.92334951  0.28936024  0.66887383     0.36600
C520        C  0.69391168  0.41163183  0.67682774     0.37400
N521        N  0.71549315  0.14101134  0.73126118    -0.43400
N522        N  0.89795646  0.30146536  0.49821291    -0.43900
N523        N  0.64800347  0.43712914  0.67690545    -0.41200
N524        N  0.96768340  0.26261122  0.66690747    -0.42700
H525        H  0.88751116  0.34600849  0.74829544     0.13500
H526        H  0.72602821  0.35029013  0.60175712     0.10000
H527        H  0.74073490  0.25750158  0.69099488     0.11000
H528        H  0.83467276  0.18424682  0.52515621     0.16900
C529        C  0.51015673  0.75673878  0.70235213    -0.01400
C530        C  0.53129166  0.76609543  0.75465168     0.07200
C531        C  0.54292164  0.81427199  0.76862314    -0.07300
C532        C  0.53126064  0.85171085  0.73382417     0.04700
C533        C  0.51250340  0.84224698  0.68163064    -0.14600
C534        C  0.50180925  0.79458238  0.66655391    -0.07900
C535        C  0.54127821  0.72728699  0.79549257     0.05600
C536        C  0.57578496  0.68578794  0.78118687    -0.09000
C537        C  0.57949732  0.64697595  0.81646009     0.00600
C538        C  0.55776325  0.65105734  0.87119733     0.00500
C539        C  0.52639886  0.69402791  0.88562851    -0.12600
C540        C  0.51619710  0.73073807  0.84898561     0.00900
C541        C  0.59705076  0.60314863  0.79092147     0.40300
C542        C  0.47411546  0.76964901  0.86676252     0.36900
C543        C  0.99840304  0.71126597  0.68356182     0.36600
C544        C  0.53747542  0.89997576  0.75309026     0.37400
N545        N  0.60974330  0.57049334  0.76482604    -0.43400
N546        N  0.94618980  0.80397036  0.87990291    -0.43900
N547        N  0.54176635  0.93858695  0.76898753    -0.41200
N548        N  0.98967394  0.67287816  0.66791761    -0.42700
H549        H  0.48783882  0.78692761  0.62646734     0.13500
H550        H  0.56156129  0.82308997  0.80716037     0.10000
H551        H  0.59726582  0.68234310  0.74095912     0.11000
H552        H  0.50419762  0.69761442  0.92561991     0.16900
C553        C  0.49134585  0.16318998  0.81506321    -0.01400
C554        C  0.52412564  0.20909346  0.80245101     0.07200
C555        C  0.55295887  0.21487829  0.74980204    -0.07300
C556        C  0.54866000  0.17787320  0.71159694     0.04700
C557        C  0.51792541  0.13217799  0.72494667    -0.14600
C558        C  0.48887082  0.12587589  0.77698388    -0.07900
C559        C  0.52929556  0.25034645  0.84323604     0.05600
C560        C  0.54996985  0.24149388  0.89505827    -0.09000
C561        C  0.55476878  0.27786340  0.93394621     0.00600
C562        C  0.53923305  0.32584950  0.92270986     0.00500
C563        C  0.04630647  0.33182711  0.86598590    -0.12600
C564        C  0.04446085  0.29273180  0.83044268     0.00900
C565        C  0.57556873  0.26466424  0.98568956     0.40300
C566        C  0.06809095  0.30109131  0.77595187     0.36900
C567        C  0.45813839  0.15308412  0.86672551     0.36600
C568        C  0.57276988  0.18820626  0.65762218     0.37400
N569        N  0.59221578  0.25476900  0.02739503    -0.43400
N570        N  0.08893200  0.30745862  0.73258241    -0.43900
N571        N  0.59119738  0.19620413  0.61404920    -0.41200
N572        N  0.43181763  0.14441188  0.90815448    -0.42700
H573        H  0.46416486  0.09141937  0.78808806     0.13500
H574        H  0.57976087  0.24843758  0.73802245     0.10000
H575        H  0.56411487  0.20584066  0.90533737     0.11000
H576        H  0.06059501  0.36723628  0.85071067     0.16900
C577        C  0.71331720  0.67154779  0.08848234    -0.01400
C578        C  0.74364162  0.71846115  0.07896512     0.07200
C579        C  0.77817208  0.72663051  0.02896551    -0.07300
C580        C  0.78350474  0.69052106  0.99018108     0.04700
C581        C  0.75061253  0.64437600  0.99806244    -0.14600
C582        C  0.71707051  0.63542101  0.04867991    -0.07900
C583        C  0.74400526  0.75890084  0.12021626     0.05600
C584        C  0.77202845  0.75243319  0.17015519    -0.09000
C585        C  0.78090958  0.79070383  0.20651435     0.00600
C586        C  0.76074329  0.83705802  0.19452576     0.00500
C587        C  0.72951587  0.84322616  0.14594529    -0.12600
C588        C  0.72161593  0.80541369  0.10920261     0.00900
C589        C  0.80874830  0.78183410  0.25705898     0.40300
C590        C  0.68892881  0.81548291  0.06068393     0.36900
C591        C  0.67657795  0.65973472  0.13845585     0.36600
C592        C  0.82573851  0.70140385  0.94268176     0.37400
N593        N  0.83088004  0.77548327  0.29794156    -0.43400
N594        N  0.66274498  0.82413621  0.02191437    -0.43900
N595        N  0.86006598  0.70956947  0.90447622    -0.41200
N596        N  0.64702133  0.65022273  0.17854510    -0.42700
H597        H  0.69450320  0.59991750  0.05755078     0.13500
H598        H  0.80335941  0.76141407  0.02056742     0.10000
H599        H  0.78783115  0.71731368  0.18057214     0.11000
H600        H  0.71185095  0.87815675  0.13627334     0.16900
C601        C  0.72679233  0.15261024  0.05994347    -0.01400
C602        C  0.77834182  0.19079888  0.05381017     0.07200
C603        C  0.83471397  0.19008580  0.08761802    -0.07300
C604        C  0.84009564  0.15363351  0.12619706     0.04700
C605        C  0.78775720  0.11579287  0.13291984    -0.14600
C606        C  0.73203618  0.11623554  0.09842653    -0.07900
C607        C  0.77195192  0.23344074  0.01621909     0.05600
C608        C  0.77525032  0.28028186  0.03650130    -0.09000
C609        C  0.76762552  0.32108704  0.00443057     0.00600
C610        C  0.75528708  0.31662672  0.94992385     0.00500
C611        C  0.75288862  0.26986807  0.92926427    -0.12600
C612        C  0.76263314  0.22908296  0.96103695     0.00900
C613        C  0.77037306  0.36724412  0.02922804     0.40300
C614        C  0.76667613  0.18354275  0.93498875     0.36900
C615        C  0.66558515  0.15058800  0.02902656     0.36600
C616        C  0.89864232  0.15781231  0.15966089     0.37400
N617        N  0.77286903  0.40431223  0.04914364    -0.43400
N618        N  0.77013216  0.14728234  0.91353451    -0.43900
N619        N  0.94613210  0.16151606  0.18602783    -0.41200
N620        N  0.61648485  0.14825778  0.00422263    -0.42700
H621        H  0.69128292  0.08797301  0.10178771     0.13500
H622        H  0.87468380  0.21888242  0.08449590     0.10000
H623        H  0.78277077  0.28509941  0.07825320     0.11000
H624        H  0.74502392  0.26510043  0.88751576     0.16900
C625        C  0.96178616  0.69678415  0.13544881    -0.01400
C626        C  0.49002867  0.73796470  0.11336204     0.07200
C627        C  0.53319818  0.72918930  0.06901162    -0.07300
C628        C  0.53952573  0.68387312  0.04965197     0.04700
C629        C  0.50061591  0.64505739  0.07422503    -0.14600
C630        C  0.96736268  0.65172375  0.11206765    -0.07900
C631        C  0.48916524  0.78839271  0.12950322     0.05600
C632        C  0.51066577  0.80020729  0.17954504    -0.09000
C633        C  0.52355541  0.84749780  0.19314281     0.00600
C634        C  0.52220476  0.88396522  0.15432716     0.00500
C635        C  0.98731308  0.87202971  0.10387662    -0.12600
C636        C  0.97292736  0.82430321  0.09082685     0.00900
C637        C  0.53258137  0.85648113  0.24828929     0.40300
C638        C  0.94674557  0.81395973  0.03955788     0.36900
C639        C  0.92773019  0.69901598  0.18745298     0.36600
C640        C  0.58680880  0.68101618  0.00398589     0.37400
N641        N  0.53852110  0.85998097  0.29330387    -0.43400
N642        N  0.92653116  0.80570566  0.99823615    -0.43900
N643        N  0.62682978  0.68542768  0.96814905    -0.41200
N644        N  0.90277970  0.69913778  0.23013487    -0.42700
H645        H  0.94052645  0.62056681  0.13072997     0.13500
H646        H  0.56335471  0.75841204  0.04923250     0.10000
H647        H  0.51875370  0.77247735  0.20812356     0.11000
H648        H  0.97873534  0.90025948  0.07598506     0.16900
C649        C  0.59136753  0.22809427  0.24074688    -0.01400
C650        C  0.53920076  0.25814122  0.26075622     0.07200
C651        C  0.01282013  0.24739995  0.30118518    -0.07300
C652        C  0.00741561  0.19926190  0.31707557     0.04700
C653        C  0.53967026  0.16374338  0.29616324    -0.14600
C654        C  0.59195547  0.18170813  0.25930939    -0.07900
C655        C  0.52952327  0.30274022  0.23269075     0.05600
C656        C  0.48240774  0.29974708  0.19248247    -0.09000
C657        C  0.49200370  0.32984878  0.14878535     0.00600
C658        C  0.54713622  0.36543417  0.14667314     0.00500
C659        C  0.11622087  0.37178169  0.18011073    -0.12600
C660        C  0.11319112  0.34151364  0.22437040     0.00900
C661        C  0.45193297  0.31876092  0.10339268     0.40300
C662        C  0.17200109  0.34162157  0.25778668     0.36900
C663        C  0.63933941  0.24200713  0.19644334     0.36600
C664        C  0.95617647  0.18433386  0.35865344     0.37400
N665        N  0.42237034  0.31055219  0.06564739    -0.43400
N666        N  0.21864265  0.34220537  0.28506238    -0.43900
N667        N  0.91501693  0.17206704  0.39185299    -0.41200
N668        N  0.67690210  0.25293792  0.16051187    -0.42700
H669        H  0.62975357  0.15819546  0.24123785     0.13500
H670        H  0.97727353  0.27249464  0.31914770     0.10000
H671        H  0.44408688  0.26989135  0.19185538     0.11000
H672        H  0.16388406  0.39342707  0.17055763     0.16900
loop_ 
_geom_bond_atom_site_label_1 
_geom_bond_atom_site_label_2 
_geom_bond_distance 
_geom_bond_site_symmetry_2 
_ccdc_geom_bond_type 
C1            C3   1.577       .  S
C1            C5   1.570       .  S
C1            C4   1.559   1_565  S
C1           C24   1.780       .  S
C2            C6   1.606       .  S
C2            C8   1.543       .  S
C2            C7   1.553   1_565  S
C2           C25   1.786       .  S
C3           C11   1.390       .  A
C3          C342   1.465   1_455  A
C4           C15   1.364       .  A
C4          C343   1.449   1_455  A
C5           C19   1.379       .  A
C5          C344   1.441   1_455  A
C6            C9   1.404       .  A
C6          C339   1.469       .  A
C7           C13   1.362       .  A
C7          C340   1.447       .  A
C8           C16   1.359       .  A
C8          C341   1.441       .  A
C9           H22   1.077       .  S
C9          N346   1.367       .  A
N10          C11   1.357       .  A
N10         C345   1.365   1_455  A
N10          N56   1.432       .  S
C11          H12   1.076       .  S
C13          H23   1.082       .  S
C13          N14   1.359       .  A
N14         C351   1.359       .  A
N14         C653   1.428       .  S
C15          H21   1.083       .  S
C15         N350   1.358       .  A
C16          H18   1.077       .  S
C16          N17   1.345       .  A
N17         C355   1.352       .  A
N17         C634   1.425       .  S
C19          H20   1.076       .  S
C19         N353   1.358       .  A
C24          C26   1.570   1_565  S
C24          C28   1.576   1_565  S
C24          C27   1.582       .  S
C25          C29   1.554   1_565  S
C25          C31   1.604   1_565  S
C25          C30   1.600       .  S
C26          C34   1.381       .  A
C26          C29   1.437       .  A
C27          C38   1.392       .  A
C27          C30   1.449       .  A
C28          C42   1.383       .  A
C28          C31   1.448       .  A
C29          C32   1.374       .  A
C30          C36   1.409       .  A
C31          C39   1.403       .  A
C32          H45   1.079       .  S
C32          N33   1.354       .  A
N33          C34   1.364       .  A
N33          N79   1.415       .  S
C34          H35   1.080       .  S
C36          H46   1.079       .  S
C36          N37   1.368       .  A
N37          C38   1.358       .  A
N37         C250   1.473       .  S
C38          H44   1.071       .  S
C39          H41   1.080       .  S
C39          N40   1.380       .  A
N40          C42   1.368       .  A
N40         C269   1.482       .  S
C42          H43   1.081       .  S
C47          C49   1.592   1_545  S
C47          C51   1.582       .  S
C47          C50   1.570   1_545  S
C47          C70   1.792       .  S
C48          C52   1.581       .  S
C48          C54   1.584   1_565  S
C48          C53   1.588       .  S
C48         C407   1.784   1_565  S
C49          C57   1.412       .  A
C49          C52   1.459   1_455  A
C50          C61   1.377       .  A
C50          C53   1.452   1_455  A
C51          C65   1.399       .  A
C51          C54   1.432   1_455  A
C52          C55   1.405       .  A
C53          C59   1.396       .  A
C54          C62   1.408       .  A
C55         H404   1.076       .  S
C55          N56   1.344   1_655  A
N56          C57   1.351       .  A
C57          H58   1.076       .  S
C59         H405   1.077       .  S
C59          N60   1.354   1_655  A
N60          C61   1.347       .  A
N60         C197   1.445       .  S
C61          H67   1.076       .  S
C62         H400   1.080       .  S
C62          N63   1.369   1_655  A
N63          C65   1.368       .  A
N63         C221   1.487       .  S
H64         C398   1.080       .  S
C65          H66   1.073       .  S
H68         C391   1.076       .  S
H69         C395   1.078       .  S
C70          C72   1.559   1_545  S
C70          C74   1.573   1_545  S
C70          C73   1.583       .  S
C71          C75   1.583   1_545  S
C71          C77   1.538   1_545  S
C71          C76   1.575       .  S
C71         C384   1.788   1_545  S
C72          C80   1.390   1_565  A
C72          C75   1.464       .  A
C73          C84   1.386       .  A
C73          C76   1.471       .  A
C74          C88   1.391       .  A
C74          C77   1.424       .  A
C75          C78   1.402   1_565  A
C76          C82   1.377       .  A
C77          C85   1.372       .  A
C78          H91   1.077       .  S
C78          N79   1.344       .  A
N79          C80   1.333       .  A
C80          H81   1.076       .  S
C82          H92   1.078       .  S
C82          N83   1.356       .  A
N83          C84   1.358       .  A
N83         C178   1.457       .  S
C84          H90   1.077       .  S
C85          H87   1.074       .  S
C85          N86   1.344       .  A
N86          C88   1.355       .  A
N86         C149   1.451       .  S
C88          H89   1.069       .  S
O93         Ni99   1.834       .  S
O93         C114   1.268       .  A
O94        Ni117   1.796       .  S
O94         C103   1.237       .  A
O95         Ni99   1.886       .  S
O95        Ni111   1.987   1_556  S
O95        Ni453   1.870       .  S
O95         H118   0.949       .  S
C96         O105   1.293       .  A
C96         O449   1.298       .  A
C96         C322   1.489       .  S
O97        Ni116   1.968   1_556  S
O97         C103   1.255       .  A
O98        Ni116   1.931   1_556  S
O98         C100   1.253       .  A
Ni99        O102   1.892       .  S
Ni99        O104   1.893   1_556  S
C100        O446   1.277       .  A
C100        C226   1.526       .  S
O101       Ni117   2.030       .  S
O101        C107   1.300       .  A
O102        C443   1.257       .  A
C103        C129   1.494       .  S
O104        C442   1.261       .  A
O105       Ni116   1.918       .  S
C106        O112   1.265       .  A
C106        O440   1.262   1_455  A
C106        C293   1.463       .  S
C107        O438   1.257   1_455  A
C107        C202   1.523       .  S
H108        O109   0.966       .  S
O109       Ni117   1.974   1_554  S
O109       Ni116   1.946       .  S
O109       Ni447   1.842       .  S
O110       Ni111   2.013   1_556  S
O110        C436   1.281       .  A
Ni111       O115   1.894       .  S
Ni111       O113   1.925       .  S
Ni111       O445   1.850       .  S
O112       Ni117   1.913   1_554  S
O113        C432   1.291       .  A
C114        O115   1.236   1_556  A
C114        C140   1.527       .  S
Ni117       O431   1.865       .  S
O119       Ni125   1.825       .  S
O119        C140   1.281       .  A
O120       Ni143   1.920       .  S
O120        C129   1.264       .  A
O121       Ni125   1.849       .  S
O121       Ni143   1.826       .  S
O121       Ni137   2.014       .  S
O121        H144   0.966       .  S
C122        O139   1.299       .  A
C122        O131   1.294       .  A
C122        C173   1.467       .  S
O123       Ni142   1.890       .  S
O123        C129   1.273       .  A
O124       Ni142   1.957       .  S
O124        C126   1.264       .  A
Ni125       O128   1.875       .  S
Ni125       O130   1.941       .  S
C126        O136   1.262       .  A
C126        C274   1.523       .  S
O127       Ni143   2.076       .  S
O127        C133   1.312       .  A
O128        C133   1.253       .  A
O130        C132   1.270       .  A
O131       Ni142   1.920       .  S
C132        O138   1.257       .  A
C132        C154   1.480       .  S
C133        C245   1.536       .  S
H134        O135   0.967       .  S
O135       Ni143   1.996       .  S
O135       Ni137   1.795       .  S
O135       Ni142   1.958       .  S
O136       Ni137   1.952       .  S
Ni137       O141   1.890       .  S
Ni137       O139   1.958       .  S
O138       Ni143   1.900       .  S
C140        O141   1.233       .  A
C145        C146   1.409       .  A
C145        C150   1.406       .  A
C145        C159   1.444       .  S
C146        C147   1.405       .  A
C146        C151   1.492       .  S
C147        C148   1.403       .  A
C147        H166   1.084       .  S
C148        C149   1.412       .  A
C148        C160   1.441       .  S
C149        C150   1.413       .  A
C150        H165   1.081       .  S
C151        C152   1.413       .  A
C151        C156   1.406       .  A
C152        C153   1.415       .  A
C152        H167   1.083       .  S
C153        C154   1.406       .  A
C153        C157   1.442       .  S
C154        C155   1.401       .  A
C155        C156   1.392       .  A
C155        H168   1.079       .  S
C156        C158   1.446       .  S
C157        N161   1.157       .  T
C158        N162   1.157       .  T
C159        N164   1.157       .  T
C160        N163   1.157       .  T
C169        C170   1.415       .  A
C169        C174   1.394       .  A
C169        C183   1.445       .  S
C170        C171   1.401       .  A
C170        C175   1.476       .  S
C171        C172   1.402       .  A
C171        H190   1.084       .  S
C172        C173   1.413       .  A
C172        C184   1.444       .  S
C173        C174   1.395       .  A
C174        H189   1.085       .  S
C175        C176   1.397       .  A
C175        C180   1.403       .  A
C176        C177   1.396       .  A
C176        H191   1.086       .  S
C177        C178   1.423       .  A
C177        C181   1.441       .  S
C178        C179   1.417       .  A
C179        C180   1.400       .  A
C179        H192   1.081       .  S
C180        C182   1.444       .  S
C181        N185   1.158       .  T
C182        N186   1.157       .  T
C183        N188   1.157       .  T
C184        N187   1.157       .  T
C193        C194   1.425       .  A
C193        C198   1.409       .  A
C193        C543   1.440   1_455  S
C194        C195   1.407       .  A
C194        C199   1.516       .  S
C195        C196   1.402       .  A
C195        H214   1.083       .  S
C196        C197   1.413       .  A
C196        C208   1.443       .  S
C197        C198   1.397       .  A
C198        H213   1.084   1_455  S
C199        C200   1.398       .  A
C199        C204   1.413       .  A
C200        C201   1.408       .  A
C200        H215   1.083       .  S
C201        C202   1.428       .  A
C201        C205   1.434       .  S
C202        C203   1.416       .  A
C203        C204   1.414       .  A
C203        H216   1.083   1_455  S
C204        C206   1.444   1_455  S
C205        N209   1.157       .  T
C206        N546   1.157       .  T
C207        C529   1.440       .  S
C207        N212   1.157       .  T
C208        N211   1.158       .  T
N210        C542   1.157       .  T
C217        C218   1.417   1_655  A
C217        C222   1.425       .  A
C217        C231   1.444       .  S
C218        C219   1.408       .  A
C218        C223   1.535       .  S
C219        C220   1.423       .  A
C219        H238   1.085       .  S
C220        C221   1.430       .  A
C220        C232   1.441       .  S
C221        C222   1.419   1_455  A
C222        H237   1.083       .  S
C223        C224   1.413       .  A
C223        C564   1.418       .  A
C224        C225   1.424       .  A
C224        H239   1.084   1_455  S
C225        C226   1.420       .  A
C225        C229   1.443       .  S
C226        C563   1.410       .  A
C227        C228   1.425       .  A
C227        C562   1.410       .  A
C227        H240   1.083       .  S
C228        C559   1.430       .  A
C228        C230   1.440       .  S
C229        N233   1.157   1_556  T
C230        N234   1.157       .  T
C231        N236   1.157       .  T
C232        N235   1.158       .  T
C241        C242   1.426       .  A
C241        C246   1.436       .  A
C241        C255   1.442       .  S
C242        C243   1.408       .  A
C242        C247   1.550       .  S
C243        C244   1.417   1_554  A
C243        H262   1.082       .  S
C244        C245   1.419       .  A
C244        C256   1.430       .  S
C245        C246   1.419   1_556  A
C246        H261   1.083       .  S
C247        C248   1.419       .  A
C247        C252   1.425       .  A
C248        C249   1.429       .  A
C248        H263   1.082       .  S
C249        C250   1.410       .  A
C249        C253   1.440       .  S
C250        C251   1.410       .  A
C251        C252   1.422       .  A
C251        H264   1.084       .  S
C252        C254   1.443       .  S
C253        N257   1.157       .  T
C254        N258   1.157       .  T
C255        N260   1.157       .  T
C256        N259   1.152       .  T
C265        C266   1.416       .  A
C265        C270   1.417       .  A
C265        C279   1.444       .  S
C266        C267   1.413       .  A
C266        C271   1.533       .  S
C267        C268   1.423       .  A
C267        H286   1.082       .  S
C268        C269   1.425       .  A
C268        C280   1.441       .  S
C269        C270   1.418       .  A
C270        H285   1.082       .  S
C271        C272   1.409       .  A
C271        C276   1.421   1_554  A
C272        C273   1.417       .  A
C272        H287   1.083       .  S
C273        C274   1.423   1_554  A
C273        C277   1.441       .  S
C274        C275   1.410       .  A
C275        C276   1.417       .  A
C275        H288   1.084       .  S
C276        C278   1.441       .  S
C277        N281   1.157       .  T
C278        N282   1.157       .  T
C279        N284   1.157       .  T
C280        N283   1.157       .  T
C289        C294   1.403       .  A
C289        C626   1.419       .  A
C289        C303   1.438       .  S
C290        C291   1.389   1_655  A
C290        C625   1.416       .  A
C290        C295   1.477       .  S
C291        C292   1.379       .  A
C291        H310   1.087       .  S
C292        C293   1.414       .  A
C292        C304   1.434   1_554  S
C293        C630   1.399   1_455  A
C294        C629   1.398       .  A
C294        H309   1.085       .  S
C295        C296   1.392   1_655  A
C295        C636   1.420       .  A
C296        C297   1.388       .  A
C296        H311   1.084       .  S
C297        C298   1.418       .  A
C297        C301   1.439       .  S
C298        C635   1.395   1_455  A
C298        N353   1.431       .  S
C299        C300   1.393       .  A
C299        C634   1.390       .  A
C299        H312   1.085       .  S
C300        C631   1.422       .  A
C300        C302   1.442       .  S
C301        N305   1.156       .  T
C302        N306   1.156   1_554  T
C303        N308   1.156       .  T
C304        N307   1.156       .  T
C313        C314   1.411       .  A
C313        C318   1.388       .  A
C313        C327   1.442       .  S
C314        C651   1.406       .  A
C314        C319   1.481       .  S
C315        C316   1.398       .  A
C315        C650   1.400       .  A
C315        H334   1.085       .  S
C316        C653   1.412       .  A
C316        C328   1.444       .  S
C317        C318   1.401       .  A
C317        C652   1.411       .  A
C317        N350   1.436       .  S
C318        H333   1.084       .  S
C319        C320   1.398   1_455  A
C319        C660   1.409       .  A
C320        C321   1.396       .  A
C320        H335   1.085       .  S
C321        C322   1.417   1_655  A
C321        C325   1.440       .  S
C322        C659   1.409       .  A
C323        C324   1.396       .  A
C323        C658   1.402       .  A
C323        H336   1.084       .  S
C324        C655   1.407       .  A
C324        C326   1.444       .  S
C325        N329   1.156       .  T
C326        N330   1.157       .  T
C327        N332   1.155       .  T
C328        N331   1.158       .  T
C337        C339   1.578       .  S
C337        C341   1.560       .  S
C337        C340   1.555   1_565  S
C337        C360   1.774       .  S
C338        C342   1.601       .  S
C338        C344   1.543       .  S
C338        C343   1.567   1_565  S
C338        C361   1.783       .  S
C339        C347   1.390       .  A
C340        C351   1.360       .  A
C341        C355   1.373       .  A
C342        C345   1.401       .  A
C343        C349   1.376       .  A
C344        C352   1.362       .  A
C345        H358   1.076       .  S
N346        C347   1.356       .  A
N346        N392   1.433       .  S
C347        H348   1.076       .  S
C349        H359   1.082       .  S
C349        N350   1.363   1_655  A
C351        H357   1.083       .  S
C352        H354   1.077       .  S
C352        N353   1.345   1_655  A
C355        H356   1.076       .  S
C360        C362   1.566   1_565  S
C360        C364   1.584   1_565  S
C360        C363   1.576       .  S
C361        C365   1.559   1_565  S
C361        C367   1.597   1_565  S
C361        C366   1.604       .  S
C362        C370   1.380       .  A
C362        C365   1.437       .  A
C363        C374   1.386       .  A
C363        C366   1.446       .  A
C364        C378   1.389       .  A
C364        C367   1.448       .  A
C365        C368   1.376       .  A
C366        C372   1.413       .  A
C367        C375   1.400       .  A
C368        H381   1.079       .  S
C368        N369   1.357       .  A
N369        C370   1.363       .  A
N369        N415   1.416       .  S
C370        H371   1.080       .  S
C372        H382   1.079       .  S
C372        N373   1.370       .  A
N373        C374   1.355       .  A
N373        C586   1.473       .  S
C374        H380   1.069       .  S
C375        H377   1.080       .  S
C375        N376   1.377       .  A
N376        C378   1.371       .  A
N376        C605   1.482       .  S
C378        H379   1.082       .  S
C383        C385   1.596       .  S
C383        C387   1.582   1_565  S
C383        C386   1.569       .  S
C383        C406   1.791   1_565  S
C384        C388   1.578       .  S
C384        C390   1.582   1_565  S
C384        C389   1.603       .  S
C385        C393   1.414       .  A
C385        C388   1.458       .  A
C386        C397   1.377       .  A
C386        C389   1.452       .  A
C387        C401   1.403       .  A
C387        C390   1.433       .  A
C388        C391   1.405       .  A
C389        C395   1.405       .  A
C390        C398   1.408       .  A
C391        N392   1.344       .  A
N392        C393   1.353       .  A
C393        H394   1.077       .  S
C395        N396   1.357       .  A
N396        C397   1.347       .  A
N396        C533   1.451       .  S
C397        H403   1.072       .  S
C398        N399   1.364       .  A
N399        C401   1.362       .  A
N399        C557   1.474       .  S
C401        H402   1.078       .  S
C406        C408   1.560   1_545  S
C406        C410   1.565   1_545  S
C406        C409   1.571       .  S
C407        C411   1.581   1_545  S
C407        C413   1.546   1_545  S
C407        C412   1.563       .  S
C408        C416   1.390   1_565  A
C408        C411   1.463       .  A
C409        C420   1.374       .  A
C409        C412   1.474       .  A
C410        C424   1.386       .  A
C410        C413   1.434       .  A
C411        C414   1.401   1_565  A
C412        C418   1.374       .  A
C413        C421   1.379       .  A
C414        H427   1.077       .  S
C414        N415   1.344       .  A
N415        C416   1.335       .  A
C416        H417   1.076       .  S
C418        H428   1.081       .  S
C418        N419   1.342       .  A
N419        C420   1.345       .  A
N419        C514   1.416       .  S
C420        H426   1.081       .  S
C421        H423   1.077       .  S
C421        N422   1.345       .  A
N422        C424   1.352       .  A
N422        C485   1.446       .  S
C424        H425   1.073       .  S
O429       Ni435   1.837       .  S
O429        C450   1.270       .  A
O430       Ni453   1.784       .  S
O430        C439   1.226       .  A
O431       Ni435   1.869   1_455  S
O431       Ni447   1.993   1_556  S
O431        H454   0.946       .  S
C432        O441   1.291       .  A
C432        C658   1.466       .  S
O433       Ni452   1.966   1_556  S
O433        C439   1.246       .  A
O434       Ni452   1.930   1_556  S
O434        C436   1.255       .  A
Ni435       O438   1.893       .  S
Ni435       O440   1.903   1_556  S
C436        C562   1.538       .  S
O437       Ni453   2.027       .  S
O437        C443   1.299       .  A
C439        C465   1.490       .  S
O441       Ni452   1.913       .  S
C442        O448   1.262       .  A
C442        C629   1.456       .  S
C443        C538   1.529       .  S
H444        O445   0.966       .  S
O445       Ni453   1.984   1_554  S
O445       Ni452   1.967       .  S
O446       Ni447   2.005   1_556  S
Ni447       O451   1.897   1_455  S
Ni447       O449   1.954       .  S
O448       Ni453   1.903   1_554  S
C450        O451   1.241   1_556  A
C450        C476   1.529       .  S
O455       Ni461   1.839       .  S
O455        C476   1.280       .  A
O456       Ni479   1.913       .  S
O456        C465   1.259       .  A
O457       Ni461   1.873       .  S
O457       Ni479   1.821       .  S
O457       Ni473   2.023       .  S
O457        H480   0.965       .  S
C458        O475   1.300       .  A
C458        O467   1.292       .  A
C458        C509   1.473       .  S
O459       Ni478   1.883       .  S
O459        C465   1.269       .  A
O460       Ni478   1.954       .  S
O460        C462   1.262       .  A
Ni461       O464   1.886       .  S
Ni461       O466   1.934       .  S
C462        O472   1.269       .  A
C462        C610   1.529       .  S
O463       Ni479   2.050       .  S
O463        C469   1.303       .  A
O464        C469   1.257       .  A
O466        C468   1.270       .  A
O467       Ni478   1.900       .  S
C468        O474   1.257       .  A
C468        C490   1.479       .  S
C469        C581   1.533       .  S
H470        O471   0.967       .  S
O471       Ni479   1.995       .  S
O471       Ni473   1.798       .  S
O471       Ni478   1.974       .  S
O472       Ni473   1.963       .  S
Ni473       O477   1.898       .  S
Ni473       O475   1.953       .  S
O474       Ni479   1.896       .  S
C476        O477   1.233       .  A
C481        C482   1.406       .  A
C481        C486   1.397       .  A
C481        C495   1.443       .  S
C482        C483   1.408       .  A
C482        C487   1.489       .  S
C483        C484   1.406       .  A
C483        H502   1.083       .  S
C484        C485   1.410       .  A
C484        C496   1.442       .  S
C485        C486   1.409       .  A
C486        H501   1.079       .  S
C487        C488   1.411       .  A
C487        C492   1.406       .  A
C488        C489   1.411       .  A
C488        H503   1.084       .  S
C489        C490   1.404       .  A
C489        C493   1.440       .  S
C490        C491   1.404       .  A
C491        C492   1.396       .  A
C491        H504   1.081       .  S
C492        C494   1.446       .  S
C493        N497   1.157       .  T
C494        N498   1.157       .  T
C495        N500   1.157       .  T
C496        N499   1.157       .  T
C505        C506   1.408       .  A
C505        C510   1.394       .  A
C505        C519   1.445       .  S
C506        C507   1.396       .  A
C506        C511   1.461       .  S
C507        C508   1.393       .  A
C507        H526   1.085       .  S
C508        C509   1.419       .  A
C508        C520   1.446       .  S
C509        C510   1.403       .  A
C510        H525   1.085       .  S
C511        C512   1.401       .  A
C511        C516   1.405       .  A
C512        C513   1.380       .  A
C512        H527   1.086       .  S
C513        C514   1.403       .  A
C513        C517   1.446       .  S
C514        C515   1.402       .  A
C515        C516   1.400       .  A
C515        H528   1.084       .  S
C516        C518   1.441       .  S
C517        N521   1.157       .  T
C518        N522   1.157       .  T
C519        N524   1.157       .  T
C520        N523   1.158       .  T
C529        C530   1.428       .  A
C529        C534   1.415       .  A
C530        C531   1.408       .  A
C530        C535   1.526       .  S
C531        C532   1.403       .  A
C531        H550   1.083       .  S
C532        C533   1.412       .  A
C532        C544   1.442       .  S
C533        C534   1.400       .  A
C534        H549   1.084       .  S
C535        C536   1.403       .  A
C535        C540   1.416       .  A
C536        C537   1.413       .  A
C536        H551   1.083       .  S
C537        C538   1.431       .  A
C537        C541   1.436       .  S
C538        C539   1.411       .  A
C539        C540   1.412       .  A
C539        H552   1.082       .  S
C540        C542   1.444       .  S
C541        N545   1.158       .  T
C543        N548   1.156       .  T
C544        N547   1.157       .  T
C553        C554   1.431       .  A
C553        C558   1.426       .  A
C553        C567   1.442       .  S
C554        C555   1.419       .  A
C554        C559   1.557       .  S
C555        C556   1.424       .  A
C555        H574   1.082       .  S
C556        C557   1.415       .  A
C556        C568   1.442       .  S
C557        C558   1.408       .  A
C558        H573   1.084       .  S
C559        C560   1.417       .  A
C560        C561   1.424       .  A
C560        H575   1.083       .  S
C561        C562   1.424       .  A
C561        C565   1.443       .  S
C563        C564   1.421       .  A
C563        H576   1.082       .  S
C564        C566   1.442       .  S
C565        N569   1.157   1_556  T
C566        N570   1.157       .  T
C567        N572   1.157       .  T
C568        N571   1.157       .  T
C577        C578   1.426       .  A
C577        C582   1.433       .  A
C577        C591   1.441       .  S
C578        C579   1.407       .  A
C578        C583   1.544       .  S
C579        C580   1.416   1_554  A
C579        H598   1.082       .  S
C580        C581   1.420       .  A
C580        C592   1.433       .  S
C581        C582   1.416   1_556  A
C582        H597   1.084       .  S
C583        C584   1.416       .  A
C583        C588   1.424       .  A
C584        C585   1.427       .  A
C584        H599   1.080       .  S
C585        C586   1.411       .  A
C585        C589   1.440       .  S
C586        C587   1.412       .  A
C587        C588   1.421       .  A
C587        H600   1.083       .  S
C588        C590   1.443       .  S
C589        N593   1.157       .  T
C590        N594   1.157       .  T
C591        N596   1.157       .  T
C592        N595   1.153       .  T
C601        C602   1.421       .  A
C601        C606   1.420       .  A
C601        C615   1.442       .  S
C602        C603   1.414       .  A
C602        C607   1.540       .  S
C603        C604   1.424       .  A
C603        H622   1.084       .  S
C604        C605   1.425       .  A
C604        C616   1.442       .  S
C605        C606   1.415       .  A
C606        H621   1.083       .  S
C607        C608   1.412       .  A
C607        C612   1.424   1_554  A
C608        C609   1.420       .  A
C608        H623   1.083       .  S
C609        C610   1.419   1_554  A
C609        C613   1.441       .  S
C610        C611   1.413       .  A
C611        C612   1.422       .  A
C611        H624   1.084       .  S
C612        C614   1.443       .  S
C613        N617   1.157       .  T
C614        N618   1.157       .  T
C615        N620   1.157       .  T
C616        N619   1.157       .  T
C625        C630   1.403       .  A
C625        C639   1.438       .  S
C626        C627   1.385       .  A
C626        C631   1.474       .  S
C627        C628   1.372       .  A
C627        H646   1.083       .  S
C628        C629   1.411       .  A
C628        C640   1.431       .  S
C630        H645   1.085       .  S
C631        C632   1.391       .  A
C632        C633   1.385       .  A
C632        H647   1.084       .  S
C633        C634   1.419       .  A
C633        C637   1.439       .  S
C635        C636   1.398       .  A
C635        H648   1.084       .  S
C636        C638   1.443       .  S
C637        N641   1.156       .  T
C638        N642   1.156   1_554  T
C639        N644   1.156       .  T
C640        N643   1.155   1_554  T
C649        C650   1.409       .  A
C649        C654   1.383       .  A
C649        C663   1.448       .  S
C650        C655   1.462       .  S
C651        C652   1.405       .  A
C651        H670   1.084   1_455  S
C652        C664   1.443   1_455  S
C653        C654   1.401       .  A
C654        H669   1.084       .  S
C655        C656   1.397       .  A
C656        C657   1.389       .  A
C656        H671   1.086       .  S
C657        C658   1.414       .  A
C657        C661   1.444       .  S
C659        C660   1.401       .  A
C659        H672   1.084       .  S
C660        C662   1.444       .  S
C661        N665   1.156       .  T
C662        N666   1.157       .  T
C663        N668   1.157       .  T
C664        N667   1.157       .  T
